api/pglib_opf_case2312_goc__api.m
%%%%%%%%%%%%%%%%%%%%%%%%%%%%%%%%%%%%%%%%%%%%%%%%%%%%%%%%%%%%%%%%%%%%%%%%%%%
%%%%                                                                  %%%%%
%%%%    IEEE PES Power Grid Library - Optimal Power Flow - v20.04     %%%%%
%%%%          (https://github.com/power-grid-lib/pglib-opf)           %%%%%
%%%%             Benchmark Group - Active Power Increase              %%%%%
%%%%                         12 - July - 2020                         %%%%%
%%%%                                                                  %%%%%
%%%%%%%%%%%%%%%%%%%%%%%%%%%%%%%%%%%%%%%%%%%%%%%%%%%%%%%%%%%%%%%%%%%%%%%%%%%
function mpc = pglib_opf_case2312_goc__api
mpc.version = '2';
mpc.baseMVA = 100.0;

%% bus data
%	bus_i	type	Pd	Qd	Gs	Bs	area	Vm	Va	baseKV	zone	Vmax	Vmin
mpc.bus = [
	1	 1	 0.0	 0.0	 0.0	 0.0	 1	    1.00000	    0.00000	 345.0	 1	    1.10000	    0.90000;
	2	 1	 7.19	 -4.07	 0.0	 -7.133	 1	    1.00000	    0.00000	 345.0	 1	    1.10000	    0.90000;
	3	 1	 2.13	 1.05	 0.0	 0.0	 1	    1.00000	    0.00000	 345.0	 1	    1.10000	    0.90000;
	4	 1	 14.72	 -5.34	 0.0	 -9.601	 1	    1.00000	    0.00000	 345.0	 1	    1.10000	    0.90000;
	5	 1	 0.0	 0.0	 0.0	 0.0	 1	    1.00000	    0.00000	 345.0	 1	    1.10000	    0.90000;
	6	 1	 61.00	 22.63	 0.0	 41.987	 1	    1.00000	    0.00000	 345.0	 1	    1.10000	    0.90000;
	7	 1	 0.0	 0.0	 0.0	 0.0	 1	    1.00000	    0.00000	 345.0	 1	    1.10000	    0.90000;
	8	 1	 0.0	 0.0	 0.0	 0.0	 1	    1.00000	    0.00000	 345.0	 1	    1.10000	    0.90000;
	9	 1	 121.25	 -56.79	 0.0	 0.0	 1	    1.00000	    0.00000	 345.0	 1	    1.10000	    0.90000;
	10	 1	 31.85	 40.01	 0.0	 0.0	 1	    1.00000	    0.00000	 345.0	 1	    1.10000	    0.90000;
	11	 1	 9.60	 4.12	 0.0	 0.0	 1	    1.00000	    0.00000	 138.0	 1	    1.10000	    0.90000;
	12	 1	 16.10	 5.86	 0.0	 0.0	 1	    1.00000	    0.00000	 138.0	 1	    1.10000	    0.90000;
	13	 1	 4.85	 1.36	 0.0	 0.0	 1	    1.00000	    0.00000	 138.0	 1	    1.10000	    0.90000;
	14	 1	 15.68	 4.30	 0.0	 0.0	 1	    1.00000	    0.00000	 138.0	 1	    1.10000	    0.90000;
	15	 1	 0.33	 0.06	 0.0	 0.0	 1	    1.00000	    0.00000	 138.0	 1	    1.10000	    0.90000;
	16	 1	 0.0	 0.0	 0.0	 0.0	 1	    1.00000	    0.00000	 138.0	 1	    1.10000	    0.90000;
	17	 1	 8.19	 2.53	 0.0	 0.0	 1	    1.00000	    0.00000	 138.0	 1	    1.10000	    0.90000;
	18	 1	 1.89	 0.44	 0.0	 0.0	 1	    1.00000	    0.00000	 138.0	 1	    1.10000	    0.90000;
	19	 1	 1.15	 0.27	 0.0	 0.0	 1	    1.00000	    0.00000	 138.0	 1	    1.10000	    0.90000;
	20	 1	 11.26	 -19.50	 0.0	 0.0	 1	    1.00000	    0.00000	 138.0	 1	    1.10000	    0.90000;
	21	 1	 11.18	 1.70	 0.0	 0.0	 1	    1.00000	    0.00000	 138.0	 1	    1.10000	    0.90000;
	22	 1	 0.0	 0.0	 0.0	 0.0	 1	    1.00000	    0.00000	 138.0	 1	    1.10000	    0.90000;
	23	 1	 23.29	 -7.05	 0.0	 0.0	 1	    1.00000	    0.00000	 138.0	 1	    1.10000	    0.90000;
	24	 2	 6.55	 2.75	 0.0	 0.0	 1	    1.00000	    0.00000	 138.0	 1	    1.10000	    0.90000;
	25	 1	 0.00	 -0.22	 0.0	 0.0	 1	    1.00000	    0.00000	 138.0	 1	    1.10000	    0.90000;
	26	 1	 27.16	 6.91	 0.0	 0.0	 1	    1.00000	    0.00000	 138.0	 1	    1.10000	    0.90000;
	27	 1	 3.44	 0.82	 0.0	 0.0	 1	    1.00000	    0.00000	 138.0	 1	    1.10000	    0.90000;
	28	 1	 0.0	 0.0	 0.0	 0.0	 1	    1.00000	    0.00000	 138.0	 1	    1.10000	    0.90000;
	29	 1	 7.29	 2.03	 0.0	 0.0	 1	    1.00000	    0.00000	 138.0	 1	    1.10000	    0.90000;
	30	 1	 0.0	 0.0	 0.0	 0.0	 1	    1.00000	    0.00000	 138.0	 1	    1.10000	    0.90000;
	31	 1	 3.77	 0.94	 0.0	 0.0	 1	    1.00000	    0.00000	 138.0	 1	    1.10000	    0.90000;
	32	 1	 5.41	 1.92	 0.0	 -1.306	 1	    1.00000	    0.00000	 138.0	 1	    1.10000	    0.90000;
	33	 1	 5.41	 2.53	 0.0	 0.0	 1	    1.00000	    0.00000	 138.0	 1	    1.10000	    0.90000;
	34	 1	 0.0	 0.0	 0.0	 0.0	 1	    1.00000	    0.00000	 138.0	 1	    1.10000	    0.90000;
	35	 1	 1.23	 0.27	 0.0	 0.0	 1	    1.00000	    0.00000	 138.0	 1	    1.10000	    0.90000;
	36	 1	 0.0	 0.0	 0.0	 0.0	 1	    1.00000	    0.00000	 138.0	 1	    1.10000	    0.90000;
	37	 1	 0.0	 0.0	 0.0	 0.0	 1	    1.00000	    0.00000	 138.0	 1	    1.10000	    0.90000;
	38	 1	 0.0	 0.0	 0.0	 0.0	 1	    1.00000	    0.00000	 138.0	 1	    1.10000	    0.90000;
	39	 1	 9.30	 -0.00	 0.0	 -0.488	 1	    1.00000	    0.00000	 138.0	 1	    1.10000	    0.90000;
	40	 1	 0.0	 0.0	 0.0	 0.0	 1	    1.00000	    0.00000	 138.0	 1	    1.10000	    0.90000;
	41	 1	 1.31	 0.33	 0.0	 0.0	 1	    1.00000	    0.00000	 138.0	 1	    1.10000	    0.90000;
	42	 1	 4.67	 0.49	 0.0	 0.0	 1	    1.00000	    0.00000	 138.0	 1	    1.10000	    0.90000;
	43	 1	 10.99	 2.12	 0.0	 3.712	 1	    1.00000	    0.00000	 138.0	 1	    1.10000	    0.90000;
	44	 1	 12.16	 4.55	 0.0	 0.0	 1	    1.00000	    0.00000	 138.0	 1	    1.10000	    0.90000;
	45	 1	 3.80	 1.25	 0.0	 0.0	 1	    1.00000	    0.00000	 138.0	 1	    1.10000	    0.90000;
	46	 2	 28.53	 8.55	 0.0	 0.0	 1	    1.00000	    0.00000	 138.0	 1	    1.10000	    0.90000;
	47	 1	 8.98	 2.30	 0.0	 0.0	 1	    1.00000	    0.00000	 138.0	 1	    1.10000	    0.90000;
	48	 1	 0.00	 0.08	 0.0	 0.0	 1	    1.00000	    0.00000	 138.0	 1	    1.10000	    0.90000;
	49	 1	 31.77	 0.07	 0.0	 -4.149	 1	    1.00000	    0.00000	 138.0	 1	    1.10000	    0.90000;
	50	 1	 0.0	 0.0	 0.0	 0.0	 1	    1.00000	    0.00000	 138.0	 1	    1.10000	    0.90000;
	51	 1	 0.0	 0.0	 0.0	 0.0	 1	    1.00000	    0.00000	 138.0	 1	    1.10000	    0.90000;
	52	 1	 14.26	 3.24	 0.0	 0.0	 1	    1.00000	    0.00000	 138.0	 1	    1.10000	    0.90000;
	53	 1	 6.08	 1.76	 0.0	 -61.98	 1	    1.00000	    0.00000	 138.0	 1	    1.10000	    0.90000;
	54	 1	 2.95	 1.16	 0.0	 0.0	 1	    1.00000	    0.00000	 138.0	 1	    1.10000	    0.90000;
	55	 1	 0.17	 0.00	 0.0	 0.0	 1	    1.00000	    0.00000	 138.0	 1	    1.10000	    0.90000;
	56	 1	 5.42	 1.44	 0.0	 0.0	 1	    1.00000	    0.00000	 138.0	 1	    1.10000	    0.90000;
	57	 1	 3.20	 0.82	 0.0	 0.0	 1	    1.00000	    0.00000	 138.0	 1	    1.10000	    0.90000;
	58	 1	 27.32	 -3.22	 0.0	 0.0	 1	    1.00000	    0.00000	 138.0	 1	    1.10000	    0.90000;
	59	 1	 5.09	 1.22	 0.0	 0.0	 1	    1.00000	    0.00000	 138.0	 1	    1.10000	    0.90000;
	60	 1	 1.15	 0.22	 0.0	 0.0	 1	    1.00000	    0.00000	 138.0	 1	    1.10000	    0.90000;
	61	 1	 6.89	 13.30	 0.0	 0.0	 1	    1.00000	    0.00000	 138.0	 1	    1.10000	    0.90000;
	62	 1	 0.0	 0.0	 0.0	 0.0	 1	    1.00000	    0.00000	 138.0	 1	    1.10000	    0.90000;
	63	 1	 3.60	 0.85	 0.0	 0.0	 1	    1.00000	    0.00000	 138.0	 1	    1.10000	    0.90000;
	64	 1	 1.80	 0.44	 0.0	 0.0	 1	    1.00000	    0.00000	 138.0	 1	    1.10000	    0.90000;
	65	 1	 1.64	 0.38	 0.0	 0.0	 1	    1.00000	    0.00000	 138.0	 1	    1.10000	    0.90000;
	66	 1	 5.67	 1.50	 0.0	 0.0	 1	    1.00000	    0.00000	 138.0	 1	    1.10000	    0.90000;
	67	 1	 7.40	 2.04	 0.0	 3.708	 1	    1.00000	    0.00000	 138.0	 1	    1.10000	    0.90000;
	68	 2	 13.19	 18.53	 0.0	 0.0	 1	    1.00000	    0.00000	 138.0	 1	    1.10000	    0.90000;
	69	 1	 0.0	 0.0	 0.0	 0.0	 1	    1.00000	    0.00000	 138.0	 1	    1.10000	    0.90000;
	70	 1	 19.18	 3.84	 0.0	 0.0	 1	    1.00000	    0.00000	 138.0	 1	    1.10000	    0.90000;
	71	 1	 0.0	 0.0	 0.0	 0.0	 1	    1.00000	    0.00000	 345.0	 2	    1.10000	    0.90000;
	72	 1	 0.0	 0.0	 0.0	 0.0	 1	    1.00000	    0.00000	 345.0	 2	    1.10000	    0.90000;
	73	 1	 0.0	 0.0	 0.0	 0.0	 1	    1.00000	    0.00000	 345.0	 2	    1.10000	    0.90000;
	74	 1	 0.0	 0.0	 0.0	 0.0	 1	    1.00000	    0.00000	 345.0	 2	    1.10000	    0.90000;
	75	 1	 9.20	 16.44	 0.0	 0.0	 1	    1.00000	    0.00000	 345.0	 2	    1.10000	    0.90000;
	76	 2	 15.27	 20.04	 0.0	 0.0	 1	    1.00000	    0.00000	 345.0	 2	    1.10000	    0.90000;
	77	 2	 9.20	 16.44	 0.0	 0.0	 1	    1.00000	    0.00000	 500.0	 2	    1.10000	    0.90000;
	78	 2	 0.0	 0.0	 0.0	 6.23030263671	 1	    1.00000	    0.00000	 345.0	 2	    1.10000	    0.90000;
	79	 1	 0.0	 0.0	 0.0	 0.0	 1	    1.00000	    0.00000	 345.0	 2	    1.10000	    0.90000;
	80	 1	 0.0	 0.0	 0.0	 0.0	 1	    1.00000	    0.00000	 345.0	 2	    1.10000	    0.90000;
	81	 1	 0.0	 0.0	 0.0	 0.0	 1	    1.00000	    0.00000	 345.0	 2	    1.10000	    0.90000;
	82	 1	 0.0	 0.0	 0.0	 0.0	 1	    1.00000	    0.00000	 345.0	 2	    1.10000	    0.90000;
	83	 1	 8.78	 1.45	 0.0	 0.0	 1	    1.00000	    0.00000	 138.0	 2	    1.10000	    0.90000;
	84	 1	 19.87	 3.52	 0.0	 0.0	 1	    1.00000	    0.00000	 138.0	 2	    1.10000	    0.90000;
	85	 1	 0.0	 0.0	 0.0	 0.0	 1	    1.00000	    0.00000	 138.0	 2	    1.10000	    0.90000;
	86	 1	 12.05	 4.79	 0.0	 6.325	 1	    1.00000	    0.00000	 138.0	 2	    1.10000	    0.90000;
	87	 1	 2.32	 0.70	 0.0	 0.0	 1	    1.00000	    0.00000	 138.0	 2	    1.10000	    0.90000;
	88	 1	 5.09	 0.35	 0.0	 0.0	 1	    1.00000	    0.00000	 138.0	 2	    1.10000	    0.90000;
	89	 1	 9.58	 2.66	 0.0	 0.0	 1	    1.00000	    0.00000	 138.0	 2	    1.10000	    0.90000;
	90	 1	 2.78	 0.29	 0.0	 -0.019	 1	    1.00000	    0.00000	 138.0	 2	    1.10000	    0.90000;
	91	 1	 2.72	 0.64	 0.0	 0.0	 1	    1.00000	    0.00000	 138.0	 2	    1.10000	    0.90000;
	92	 1	 14.74	 18.03	 0.0	 0.0	 1	    1.00000	    0.00000	 138.0	 2	    1.10000	    0.90000;
	93	 1	 0.0	 0.0	 0.0	 0.0	 1	    1.00000	    0.00000	 138.0	 2	    1.10000	    0.90000;
	94	 1	 1.76	 0.46	 0.0	 0.0	 1	    1.00000	    0.00000	 138.0	 2	    1.10000	    0.90000;
	95	 1	 3.60	 1.05	 0.0	 7.99995490307	 1	    1.00000	    0.00000	 138.0	 2	    1.10000	    0.90000;
	96	 1	 0.06	 -0.43	 0.0	 0.0	 1	    1.00000	    0.00000	 138.0	 2	    1.10000	    0.90000;
	97	 1	 4.28	 1.08	 0.0	 0.0	 1	    1.00000	    0.00000	 138.0	 2	    1.10000	    0.90000;
	98	 2	 15.52	 13.98	 0.0	 0.0	 1	    1.00000	    0.00000	 138.0	 2	    1.10000	    0.90000;
	99	 2	 9.64	 5.08	 0.0	 0.0	 1	    1.00000	    0.00000	 138.0	 2	    1.10000	    0.90000;
	100	 1	 9.90	 2.60	 0.0	 0.0	 1	    1.00000	    0.00000	 138.0	 2	    1.10000	    0.90000;
	101	 1	 7.19	 2.08	 0.0	 0.0	 1	    1.00000	    0.00000	 138.0	 2	    1.10000	    0.90000;
	102	 1	 10.86	 3.12	 0.0	 0.0	 1	    1.00000	    0.00000	 138.0	 2	    1.10000	    0.90000;
	103	 1	 8.74	 2.05	 0.0	 0.0	 1	    1.00000	    0.00000	 138.0	 2	    1.10000	    0.90000;
	104	 1	 7.98	 2.08	 0.0	 -1.48527940582e-05	 1	    1.00000	    0.00000	 138.0	 2	    1.10000	    0.90000;
	105	 1	 0.0	 0.0	 0.0	 0.0	 1	    1.00000	    0.00000	 138.0	 2	    1.10000	    0.90000;
	106	 1	 0.0	 0.0	 0.0	 0.0	 1	    1.00000	    0.00000	 138.0	 2	    1.10000	    0.90000;
	107	 1	 4.21	 0.35	 0.0	 0.0	 1	    1.00000	    0.00000	 138.0	 2	    1.10000	    0.90000;
	108	 1	 5.27	 1.10	 0.0	 0.0	 1	    1.00000	    0.00000	 138.0	 2	    1.10000	    0.90000;
	109	 1	 4.31	 1.27	 0.0	 0.0	 1	    1.00000	    0.00000	 138.0	 2	    1.10000	    0.90000;
	110	 1	 3.19	 0.93	 0.0	 0.0	 1	    1.00000	    0.00000	 138.0	 2	    1.10000	    0.90000;
	111	 1	 1.12	 0.29	 0.0	 0.0	 1	    1.00000	    0.00000	 138.0	 2	    1.10000	    0.90000;
	112	 1	 1.37	 0.42	 0.0	 0.0	 1	    1.00000	    0.00000	 138.0	 2	    1.10000	    0.90000;
	113	 1	 1.28	 0.41	 0.0	 0.0	 1	    1.00000	    0.00000	 138.0	 2	    1.10000	    0.90000;
	114	 1	 2.39	 0.47	 0.0	 0.0	 1	    1.00000	    0.00000	 138.0	 2	    1.10000	    0.90000;
	115	 1	 3.66	 0.30	 0.0	 0.0	 1	    1.00000	    0.00000	 138.0	 2	    1.10000	    0.90000;
	116	 1	 5.43	 0.98	 0.0	 0.0	 1	    1.00000	    0.00000	 138.0	 2	    1.10000	    0.90000;
	117	 1	 8.78	 2.54	 0.0	 3.51187827085	 1	    1.00000	    0.00000	 138.0	 2	    1.10000	    0.90000;
	118	 1	 6.47	 1.85	 0.0	 0.0	 1	    1.00000	    0.00000	 138.0	 2	    1.10000	    0.90000;
	119	 1	 3.71	 -0.93	 0.0	 0.0	 1	    1.00000	    0.00000	 138.0	 2	    1.10000	    0.90000;
	120	 2	 16.78	 6.94	 0.0	 0.0	 1	    1.00000	    0.00000	 138.0	 2	    1.10000	    0.90000;
	121	 1	 19.16	 12.71	 0.0	 0.0	 1	    1.00000	    0.00000	 138.0	 2	    1.10000	    0.90000;
	122	 1	 11.18	 2.31	 0.0	 0.0	 1	    1.00000	    0.00000	 138.0	 2	    1.10000	    0.90000;
	123	 1	 12.37	 2.60	 0.0	 0.0	 1	    1.00000	    0.00000	 138.0	 2	    1.10000	    0.90000;
	124	 1	 4.10	 0.97	 0.0	 0.0	 1	    1.00000	    0.00000	 138.0	 2	    1.10000	    0.90000;
	125	 1	 4.35	 3.20	 0.0	 0.0	 1	    1.00000	    0.00000	 138.0	 2	    1.10000	    0.90000;
	126	 1	 5.91	 1.73	 0.0	 0.0	 1	    1.00000	    0.00000	 138.0	 2	    1.10000	    0.90000;
	127	 1	 0.0	 0.0	 0.0	 0.0	 1	    1.00000	    0.00000	 138.0	 2	    1.10000	    0.90000;
	128	 1	 5.68	 1.39	 0.0	 0.0	 1	    1.00000	    0.00000	 138.0	 2	    1.10000	    0.90000;
	129	 1	 0.92	 0.26	 0.0	 0.0	 1	    1.00000	    0.00000	 138.0	 2	    1.10000	    0.90000;
	130	 1	 4.39	 1.27	 0.0	 0.0	 1	    1.00000	    0.00000	 138.0	 2	    1.10000	    0.90000;
	131	 1	 4.47	 1.27	 0.0	 0.0	 1	    1.00000	    0.00000	 138.0	 2	    1.10000	    0.90000;
	132	 1	 4.79	 0.95	 0.0	 0.0	 1	    1.00000	    0.00000	 138.0	 2	    1.10000	    0.90000;
	133	 1	 4.79	 0.95	 0.0	 0.0	 1	    1.00000	    0.00000	 138.0	 2	    1.10000	    0.90000;
	134	 1	 0.48	 0.11	 0.0	 0.0	 1	    1.00000	    0.00000	 138.0	 2	    1.10000	    0.90000;
	135	 2	 10.07	 2.89	 0.0	 0.0	 1	    1.00000	    0.00000	 138.0	 2	    1.10000	    0.90000;
	136	 1	 7.19	 1.98	 0.0	 0.0	 1	    1.00000	    0.00000	 138.0	 2	    1.10000	    0.90000;
	137	 1	 3.59	 1.04	 0.0	 0.0	 1	    1.00000	    0.00000	 138.0	 2	    1.10000	    0.90000;
	138	 1	 4.96	 1.39	 0.0	 4.1998700159	 1	    1.00000	    0.00000	 138.0	 2	    1.10000	    0.90000;
	139	 1	 16.69	 3.34	 0.0	 0.0	 1	    1.00000	    0.00000	 138.0	 2	    1.10000	    0.90000;
	140	 1	 1.60	 0.46	 0.0	 0.0	 1	    1.00000	    0.00000	 138.0	 2	    1.10000	    0.90000;
	141	 1	 2.08	 0.57	 0.0	 0.0	 1	    1.00000	    0.00000	 138.0	 2	    1.10000	    0.90000;
	142	 1	 3.11	 0.29	 0.0	 0.0	 1	    1.00000	    0.00000	 138.0	 2	    1.10000	    0.90000;
	143	 1	 0.0	 0.0	 0.0	 0.0	 1	    1.00000	    0.00000	 138.0	 2	    1.10000	    0.90000;
	144	 1	 0.0	 0.0	 0.0	 0.0	 1	    1.00000	    0.00000	 138.0	 2	    1.10000	    0.90000;
	145	 1	 0.0	 0.0	 0.0	 0.0	 1	    1.00000	    0.00000	 138.0	 2	    1.10000	    0.90000;
	146	 1	 6.47	 1.68	 0.0	 0.0	 1	    1.00000	    0.00000	 138.0	 2	    1.10000	    0.90000;
	147	 1	 2.88	 0.46	 0.0	 0.0	 1	    1.00000	    0.00000	 138.0	 2	    1.10000	    0.90000;
	148	 1	 21.64	 5.66	 0.0	 0.0	 1	    1.00000	    0.00000	 138.0	 2	    1.10000	    0.90000;
	149	 1	 1.20	 0.34	 0.0	 0.0	 1	    1.00000	    0.00000	 138.0	 2	    1.10000	    0.90000;
	150	 2	 347.40	 0.00	 0.0	 0.0	 1	    1.00000	    0.00000	 345.0	 2	    1.10000	    0.90000;
	151	 1	 62.52	 47.07	 0.0	 0.0	 1	    1.00000	    0.00000	 345.0	 3	    1.10000	    0.90000;
	152	 1	 0.0	 0.0	 0.0	 0.0	 1	    1.00000	    0.00000	 500.0	 3	    1.10000	    0.90000;
	153	 1	 0.0	 0.0	 0.0	 -11.354	 1	    1.00000	    0.00000	 500.0	 3	    1.10000	    0.90000;
	154	 1	 0.0	 0.0	 0.0	 0.0	 1	    1.00000	    0.00000	 500.0	 3	    1.10000	    0.90000;
	155	 1	 0.0	 0.0	 0.0	 0.0	 1	    1.00000	    0.00000	 500.0	 3	    1.10000	    0.90000;
	156	 1	 118.59	 39.30	 0.0	 75.294	 1	    1.00000	    0.00000	 500.0	 3	    1.10000	    0.90000;
	157	 1	 0.0	 0.0	 0.0	 -27.072	 1	    1.00000	    0.00000	 345.0	 3	    1.10000	    0.90000;
	158	 1	 0.0	 0.0	 0.0	 -322.112	 1	    1.00000	    0.00000	 500.0	 3	    1.10000	    0.90000;
	159	 1	 0.0	 0.0	 0.0	 0.0	 1	    1.00000	    0.00000	 500.0	 3	    1.10000	    0.90000;
	160	 1	 0.0	 0.0	 0.0	 0.0	 1	    1.00000	    0.00000	 500.0	 3	    1.10000	    0.90000;
	161	 1	 0.0	 0.0	 0.0	 -124.239	 1	    1.00000	    0.00000	 500.0	 3	    1.10000	    0.90000;
	162	 1	 26.63	 32.97	 0.0	 0.0	 1	    1.00000	    0.00000	 500.0	 3	    1.10000	    0.90000;
	163	 1	 0.0	 0.0	 0.0	 0.00335811035315	 1	    1.00000	    0.00000	 500.0	 3	    1.10000	    0.90000;
	164	 1	 0.0	 0.0	 0.0	 0.0	 1	    1.00000	    0.00000	 500.0	 3	    1.10000	    0.90000;
	165	 1	 8.44	 21.92	 0.0	 0.0	 1	    1.00000	    0.00000	 500.0	 3	    1.10000	    0.90000;
	166	 2	 3.84	 5.48	 0.0	 0.0	 1	    1.00000	    0.00000	 500.0	 3	    1.10000	    0.90000;
	167	 1	 5.32	 1.70	 0.0	 0.0	 1	    1.00000	    0.00000	 138.0	 3	    1.10000	    0.90000;
	168	 2	 11.24	 0.55	 0.0	 0.0	 1	    1.00000	    0.00000	 138.0	 3	    1.10000	    0.90000;
	169	 1	 6.24	 0.72	 0.0	 0.0	 1	    1.00000	    0.00000	 138.0	 3	    1.10000	    0.90000;
	170	 1	 10.87	 2.31	 0.0	 0.0	 1	    1.00000	    0.00000	 138.0	 3	    1.10000	    0.90000;
	171	 1	 3.24	 0.55	 0.0	 0.0	 1	    1.00000	    0.00000	 138.0	 3	    1.10000	    0.90000;
	172	 1	 101.18	 31.26	 0.0	 16.0407575511	 1	    1.00000	    0.00000	 138.0	 3	    1.10000	    0.90000;
	173	 1	 0.0	 0.0	 0.0	 0.000126326795128	 1	    1.00000	    0.00000	 32.0	 3	    1.10000	    0.90000;
	174	 1	 0.0	 0.0	 0.0	 0.0	 1	    1.00000	    0.00000	 138.0	 3	    1.10000	    0.90000;
	175	 1	 4.00	 1.16	 0.0	 0.0	 1	    1.00000	    0.00000	 138.0	 3	    1.10000	    0.90000;
	176	 1	 2.00	 0.55	 0.0	 0.0	 1	    1.00000	    0.00000	 138.0	 3	    1.10000	    0.90000;
	177	 1	 0.01	 0.01	 0.0	 0.0	 1	    1.00000	    0.00000	 138.0	 3	    1.10000	    0.90000;
	178	 2	 0.01	 0.01	 0.0	 0.0	 1	    1.00000	    0.00000	 138.0	 3	    1.10000	    0.90000;
	179	 1	 12.02	 2.86	 0.0	 0.0	 1	    1.00000	    0.00000	 138.0	 3	    1.10000	    0.90000;
	180	 1	 12.87	 2.59	 0.0	 0.0	 1	    1.00000	    0.00000	 138.0	 3	    1.10000	    0.90000;
	181	 1	 3.24	 0.27	 0.0	 0.0	 1	    1.00000	    0.00000	 138.0	 3	    1.10000	    0.90000;
	182	 1	 8.32	 0.55	 0.0	 0.0	 1	    1.00000	    0.00000	 138.0	 3	    1.10000	    0.90000;
	183	 2	 11.25	 1.70	 0.0	 0.0	 1	    1.00000	    0.00000	 138.0	 3	    1.10000	    0.90000;
	184	 1	 5.78	 0.55	 0.0	 0.0	 1	    1.00000	    0.00000	 138.0	 3	    1.10000	    0.90000;
	185	 2	 1.62	 0.27	 0.0	 0.0	 1	    1.00000	    0.00000	 138.0	 3	    1.10000	    0.90000;
	186	 1	 4.40	 0.55	 0.0	 0.0	 1	    1.00000	    0.00000	 138.0	 3	    1.10000	    0.90000;
	187	 1	 0.0	 0.0	 0.0	 55.9920014246	 1	    1.00000	    0.00000	 16.0	 3	    1.10000	    0.90000;
	188	 2	 7.25	 1.43	 0.0	 5.27387853308	 1	    1.00000	    0.00000	 138.0	 3	    1.10000	    0.90000;
	189	 1	 3.24	 0.55	 0.0	 0.0	 1	    1.00000	    0.00000	 138.0	 3	    1.10000	    0.90000;
	190	 1	 0.0	 0.0	 0.0	 0.0156527920741	 1	    1.00000	    0.00000	 138.0	 3	    1.10000	    0.90000;
	191	 1	 12.02	 1.43	 0.0	 0.0	 1	    1.00000	    0.00000	 138.0	 3	    1.10000	    0.90000;
	192	 1	 15.26	 3.74	 0.0	 0.0	 1	    1.00000	    0.00000	 138.0	 3	    1.10000	    0.90000;
	193	 1	 6.40	 1.49	 0.0	 0.0	 1	    1.00000	    0.00000	 138.0	 3	    1.10000	    0.90000;
	194	 1	 12.87	 3.47	 0.0	 0.0	 1	    1.00000	    0.00000	 138.0	 3	    1.10000	    0.90000;
	195	 2	 11.25	 1.70	 0.0	 0.0	 1	    1.00000	    0.00000	 138.0	 3	    1.10000	    0.90000;
	196	 1	 3.18	 -0.12	 0.0	 0.0	 1	    1.00000	    0.00000	 138.0	 3	    1.10000	    0.90000;
	197	 1	 5.62	 1.16	 0.0	 0.0	 1	    1.00000	    0.00000	 138.0	 3	    1.10000	    0.90000;
	198	 1	 4.00	 0.27	 0.0	 0.0	 1	    1.00000	    0.00000	 138.0	 3	    1.10000	    0.90000;
	199	 1	 0.0	 0.0	 0.0	 -2.49761461351	 1	    1.00000	    0.00000	 138.0	 3	    1.10000	    0.90000;
	200	 1	 0.0	 0.0	 0.0	 -18.0621211952	 1	    1.00000	    0.00000	 138.0	 3	    1.10000	    0.90000;
...
];

%% generator data
%	bus	Pg	Qg	Qmax	Qmin	Vg	mBase	status	Pmax	Pmin
mpc.gen = [
	9	 0.0	 0.0	 93.531	 -93.531	 1.0	 252.98	 0	 30	 135.0; % NG
	10	 0.0	 0.0	 155.693	 -155.693	 1.0	 267.71	 0	 163	 85.758; % NG
	10	 0.0	 0.0	 162.14	 -162.14	 1.0	 256.16	 0	 66	 178.876; % NG
	11	 0.0	 0.0	 66.0	 -66.0	 1.0	 55.0	 0	 131	 17.9165; % NG
	12	 0.0	 0.0	 32.0	 -32.0	 1.0	 55.0	 0	 63	 17.9165; % NG
	24	 52.75	 0.0	 52.0	 -52.0	 1.0	 100.0	 1	 104	 1.5; % NG
	26	 0.0	 0.0	 7.0	 -7.0	 1.0	 15.0	 0	 13	 1.5; % PEL
	46	 129.25	 0.0	 129.0	 -129.0	 1.0	 12.0	 1	 257	 1.5; % NG
	68	 158.25	 0.0	 125.0	 -125.0	 1.0	 267.05	 1	 249	 67.5; % NG
	75	 0.0	 0.0	 74.825	 -74.825	 1.0	 253.76	 0	 133	 67.5; % NG
	76	 148.0	 0.0	 224.4	 -224.4	 1.0	 232.0	 1	 246	 50.0; % NG
	77	 0.0	 0.0	 91.25	 -91.25	 1.0	 268.92	 0	 100	 45.0; % COW
	77	 287.63875	 0.0	 284.0	 -284.0	 1.0	 100.0	 1	 568	 7.2775; % NG
	78	 30.55675	 0.0	 63.457	 -63.457	 1.0	 100.0	 1	 56	 5.1135; % NG
	92	 0.0	 0.0	 198.0	 -198.0	 1.0	 222.0	 0	 396	 45.0; % COW
	95	 0.0	 0.0	 104.755	 -104.755	 1.0	 2.04	 0	 35	 8.441; % NG
	98	 0.0	 0.0	 66.0	 -66.0	 1.0	 65.75	 0	 131	 5.0; % COW
	98	 5.0	 0.0	 118.8	 -118.8	 1.0	 6.0	 1	 9	 1.0; % NG
	99	 11.25	 0.0	 95.63	 -95.63	 1.0	 6.47	 1	 22	 0.5; % NG
	112	 0.0	 0.0	 101.47	 -101.47	 1.0	 0.26	 0	 73	 8.1765; % NG
	112	 0.0	 0.0	 105.12	 -105.12	 1.0	 1.36	 0	 4	 0.5; % NG
	120	 38.75	 0.0	 38.0	 -38.0	 1.0	 20.0	 1	 75	 2.5; % PEL
	125	 0.0	 0.0	 56.0	 -56.0	 1.0	 65.0	 0	 111	 20.0; % PEL
	127	 0.0	 0.0	 13.0	 -13.0	 1.0	 31.0	 0	 25	 1.5; % NG
	128	 0.0	 0.0	 32.0	 -32.0	 1.0	 31.0	 0	 63	 1.5; % NG
	135	 41.25	 0.0	 104.39	 -104.39	 1.0	 2.03	 1	 82	 0.5; % NG
	138	 0.0	 0.0	 134.0	 -134.0	 1.0	 0.24	 0	 268	 7.647; % NG
	150	 61.44125	 0.0	 97.82	 -97.82	 1.0	 108.13	 1	 115	 7.8825; % COW
	165	 0.0	 0.0	 85.0	 -85.0	 1.0	 216.55	 0	 170	 5.2645; % NG
	165	 0.0	 0.0	 65.335	 -65.335	 1.0	 179.0	 0	 37	 5.2645; % NG
	165	 0.0	 0.0	 65.335	 -65.335	 1.0	 179.0	 0	 18	 5.2645; % COW
	166	 170.4	 0.0	 170.0	 -170.0	 1.0	 179.0	 1	 339	 1.8; % COW
	168	 84.5	 0.0	 78.0	 -78.0	 1.0	 58.99	 1	 156	 13.0; % NG
	171	 0.0	 0.0	 371.0	 -371.0	 1.0	 0.36	 0	 742	 8.353; % COW
	177	 0.0	 0.0	 6.57	 -6.57	 1.0	 18.0	 0	 9	 1.5; % PEL
	178	 51.75	 0.0	 51.0	 -51.0	 1.0	 22.0	 1	 102	 1.5; % NG
	183	 29.24325	 0.0	 95.63	 -95.63	 1.0	 0.24	 1	 53	 5.4865; % NG
	185	 107.75	 0.0	 107.0	 -107.0	 1.0	 100.0	 1	 214	 1.5; % COW
	188	 74.75	 0.0	 109.135	 -109.135	 1.0	 2.0	 1	 149	 0.5; % NG
	194	 0.0	 0.0	 103.66	 -103.66	 1.0	 1.0	 0	 170	 8.353; % NG
	195	 87.25	 0.0	 93.44	 -93.44	 1.0	 1.08	 1	 173	 1.5; % NG
	201	 46.7795	 0.0	 106.215	 -106.215	 1.0	 0.12	 1	 85	 8.559; % NG
	207	 0.0	 0.0	 107.31	 -107.31	 1.0	 9.0	 0	 67	 8.647; % NG
	209	 0.0	 0.0	 95.265	 -95.265	 1.0	 0.24	 0	 64	 7.6765; % NG
	217	 349.515	 0.0	 347.0	 -347.0	 1.0	 100.0	 1	 694	 5.03; % NG
	223	 0.0	 0.0	 142.0	 -142.0	 1.0	 282.49	 0	 284	 60.0; % NG
	224	 118.0	 0.0	 98.094	 -98.094	 1.0	 281.34	 1	 176	 60.0; % NG
	225	 208.25	 0.0	 374.4	 -374.4	 1.0	 252.98	 1	 349	 67.5; % COW
	246	 103.5	 0.0	 98.094	 -98.094	 1.0	 273.78	 1	 147	 60.0; % NG
	248	 23.8875	 0.0	 23.0	 -23.0	 1.0	 100.0	 1	 46	 1.775; % PEL
	252	 64.0	 0.0	 57.031	 -57.031	 1.0	 160.45	 1	 93	 35.0; % NG
	252	 0.0	 0.0	 68.0	 -68.0	 1.0	 143.77	 0	 135	 35.0; % NG
	274	 0.0	 0.0	 108.405	 -108.405	 1.0	 42.43	 0	 13	 8.7355; % NG
	282	 7.25	 0.0	 1389.6	 -1389.6	 1.0	 100.0	 1	 13	 1.5; % NG
	289	 0.0	 0.0	 65.335	 -65.335	 1.0	 216.55	 0	 10	 5.2645; % NG
	289	 36.63225	 0.0	 1012.8	 -1012.8	 1.0	 179.0	 1	 68	 5.2645; % NG
	289	 0.0	 0.0	 65.335	 -65.335	 1.0	 179.0	 0	 67	 5.2645; % NG
	290	 0.0	 0.0	 65.335	 -65.335	 1.0	 179.0	 0	 113	 5.2645; % NG
	292	 101.0	 0.0	 95.0	 -95.0	 1.0	 58.99	 1	 189	 13.0; % NG
	295	 0.0	 0.0	 108.04	 -108.04	 1.0	 0.36	 0	 179	 8.706; % COW
	297	 10.25	 0.0	 547.5	 -547.5	 1.0	 100.0	 1	 19	 1.5; % COW
	301	 0.0	 0.0	 6.57	 -6.57	 1.0	 18.0	 0	 7	 1.5; % PEL
	302	 0.0	 0.0	 34.0	 -34.0	 1.0	 22.0	 0	 67	 1.5; % PEL
	307	 0.0	 0.0	 107.31	 -107.31	 1.0	 0.24	 0	 16	 8.647; % NG
	311	 181.75	 0.0	 547.5	 -547.5	 1.0	 100.0	 1	 362	 1.5; % NG
	312	 0.0	 0.0	 94.17	 -94.17	 1.0	 2.0	 0	 11	 0.5; % NG
	318	 164.1825	 0.0	 163.0	 -163.0	 1.0	 1.0	 1	 325	 3.365; % NG
	319	 0.0	 0.0	 96.36	 -96.36	 1.0	 1.08	 0	 64	 7.7645; % NG
	325	 0.0	 0.0	 1373.0	 -1373.0	 1.0	 0.12	 0	 2746	 7.853; % COW
	331	 110.23525	 0.0	 107.0	 -107.0	 1.0	 9.0	 1	 213	 7.4705; % NG
	333	 0.0	 0.0	 97.455	 -97.455	 1.0	 0.24	 0	 165	 7.853; % NG
	343	 0.0	 0.0	 147.451	 -147.451	 1.0	 100.0	 0	 6	 23.763; % NG
	344	 289.44075	 0.0	 284.0	 -284.0	 1.0	 100.0	 1	 567	 11.8815; % COW
	345	 250.4415	 0.0	 245.0	 -245.0	 1.0	 100.0	 1	 489	 11.883; % NG
	347	 0.0	 0.0	 134.137	 -134.137	 1.0	 100.0	 0	 175	 10.809; % NG
	349	 152.4175	 0.0	 150.0	 -150.0	 1.0	 100.0	 1	 299	 5.835; % NG
	350	 0.0	 0.0	 98.55	 -98.55	 1.0	 100.0	 0	 83	 7.941; % NG
	351	 0.0	 0.0	 98.55	 -98.55	 1.0	 100.0	 0	 67	 7.941; % COW
	352	 306.9705	 0.0	 303.0	 -303.0	 1.0	 100.0	 1	 606	 7.941; % COW
	353	 191.967	 0.0	 188.0	 -188.0	 1.0	 100.0	 1	 375	 8.934; % NG
	354	 0.0	 0.0	 238.0	 -238.0	 1.0	 100.0	 0	 476	 8.934; % COW
	355	 0.0	 0.0	 98.961	 -98.961	 1.0	 100.0	 0	 23	 7.9745; % NG
	356	 166.48725	 0.0	 163.0	 -163.0	 1.0	 100.0	 1	 325	 7.9745; % NG
	357	 224.98725	 0.0	 221.0	 -221.0	 1.0	 100.0	 1	 442	 7.9745; % NG
	358	 294.1	 0.0	 289.0	 -289.0	 1.0	 100.0	 1	 578	 10.2; % NG
	360	 0.0	 0.0	 145.242	 -145.242	 1.0	 100.0	 0	 89	 11.7035; % NG
	361	 0.0	 0.0	 145.242	 -145.242	 1.0	 100.0	 0	 31	 11.7035; % NG
	362	 0.0	 0.0	 145.242	 -145.242	 1.0	 100.0	 0	 47	 11.7035; % COW
	364	 261.84925	 0.0	 257.0	 -257.0	 1.0	 100.0	 1	 513	 10.6985; % COW
	365	 0.0	 0.0	 132.769	 -132.769	 1.0	 100.0	 0	 16	 10.6985; % NG
	366	 193.226	 0.0	 190.0	 -190.0	 1.0	 100.0	 1	 380	 6.452; % NG
	367	 0.0	 0.0	 80.072	 -80.072	 1.0	 100.0	 0	 18	 6.452; % NG
	379	 77.99375	 0.0	 1130.4	 -1130.4	 1.0	 100.0	 1	 133	 22.9875; % COW
	385	 948.41825	 0.0	 942.0	 -942.0	 1.0	 100.0	 1	 1883	 13.8365; % COW
	392	 0.0	 0.0	 148.427	 -148.427	 1.0	 100.0	 0	 231	 11.96; % COW
	393	 0.0	 0.0	 148.282	 -148.282	 1.0	 100.0	 0	 27	 11.9485; % NG
	394	 0.0	 0.0	 148.411	 -148.411	 1.0	 100.0	 0	 168	 11.959; % NG
	395	 0.0	 0.0	 148.387	 -148.387	 1.0	 100.0	 0	 119	 11.957; % COW
	397	 0.0	 0.0	 134.137	 -134.137	 1.0	 100.0	 0	 170	 10.809; % COW
	399	 0.0	 0.0	 219.0	 -219.0	 1.0	 100.0	 0	 438	 10.809; % COW
	400	 0.0	 0.0	 134.137	 -134.137	 1.0	 100.0	 0	 54	 10.809; % COW
	402	 0.0	 0.0	 98.55	 -98.55	 1.0	 100.0	 0	 139	 7.941; % NG
	403	 0.0	 0.0	 98.55	 -98.55	 1.0	 100.0	 0	 69	 7.941; % COW
	404	 298.4705	 0.0	 295.0	 -295.0	 1.0	 100.0	 1	 589	 7.941; % COW
	405	 0.0	 0.0	 98.55	 -98.55	 1.0	 100.0	 0	 13	 7.941; % COW
	406	 0.0	 0.0	 110.869	 -110.869	 1.0	 100.0	 0	 69	 8.934; % COW
	407	 211.967	 0.0	 208.0	 -208.0	 1.0	 100.0	 1	 415	 8.934; % NG
	408	 0.0	 0.0	 98.961	 -98.961	 1.0	 100.0	 0	 159	 7.9745; % NG
	409	 0.0	 0.0	 179.0	 -179.0	 1.0	 100.0	 0	 357	 7.9745; % NG
	410	 260.48725	 0.0	 257.0	 -257.0	 1.0	 100.0	 1	 513	 7.9745; % NG
	411	 0.0	 0.0	 126.582	 -126.582	 1.0	 100.0	 0	 200	 10.2; % COW
	414	 0.0	 0.0	 119.0	 -119.0	 1.0	 100.0	 0	 238	 9.32; % NG
	415	 277.75	 0.0	 277.0	 -277.0	 1.0	 100.0	 1	 554	 1.5; % NG
	416	 0.0	 0.0	 115.659	 -115.659	 1.0	 100.0	 0	 108	 9.32; % COW
	417	 314.7795	 0.0	 309.0	 -309.0	 1.0	 100.0	 1	 618	 11.559; % COW
	418	 0.0	 0.0	 119.081	 -119.081	 1.0	 100.0	 0	 69	 9.5955; % NG
	419	 179.40375	 0.0	 179.0	 -179.0	 1.0	 100.0	 1	 357	 1.8075; % NG
	420	 0.0	 0.0	 114.975	 -114.975	 1.0	 100.0	 0	 20	 9.2645; % NG
	421	 0.0	 0.0	 148.443	 -148.443	 1.0	 100.0	 0	 288	 11.9615; % COW
	423	 0.0	 0.0	 137.0	 -137.0	 1.0	 100.0	 0	 274	 2.4265; % NG
	424	 52.71325	 0.0	 52.0	 -52.0	 1.0	 100.0	 1	 103	 2.4265; % NG
	425	 0.0	 0.0	 30.797	 -30.797	 1.0	 100.0	 0	 44	 2.4815; % NG
	426	 0.0	 0.0	 138.0	 -138.0	 1.0	 100.0	 0	 275	 2.4815; % NG
	427	 0.0	 0.0	 42.0	 -42.0	 1.0	 100.0	 0	 84	 2.4815; % NG
	428	 0.0	 0.0	 103.0	 -103.0	 1.0	 100.0	 0	 205	 2.4815; % NG
	430	 0.0	 0.0	 303.0	 -303.0	 1.0	 100.0	 0	 606	 10.6985; % COW
	431	 205.84925	 0.0	 201.0	 -201.0	 1.0	 100.0	 1	 401	 10.6985; % NG
	432	 0.0	 0.0	 80.072	 -80.072	 1.0	 100.0	 0	 0	 12.904; % NG
	433	 0.0	 0.0	 80.072	 -80.072	 1.0	 100.0	 0	 57	 6.452; % NG
	444	 416.06925	 0.0	 410.0	 -410.0	 1.0	 100.0	 1	 820	 12.1385; % NG
	445	 447.5295	 0.0	 457.2	 -457.2	 1.0	 100.0	 1	 885	 10.059; % NG
	452	 279.782	 0.0	 274.0	 -274.0	 1.0	 100.0	 1	 547	 12.564; % NG
	453	 0.0	 0.0	 155.856	 -155.856	 1.0	 100.0	 0	 146	 12.559; % NG
	455	 572.771	 0.0	 567.0	 -567.0	 1.0	 100.0	 1	 1133	 12.542; % COW
	456	 0.0	 0.0	 155.66	 -155.66	 1.0	 100.0	 0	 117	 12.543; % COW
	457	 0.0	 0.0	 127.567	 -127.567	 1.0	 100.0	 0	 24	 10.2795; % NG
	458	 0.0	 0.0	 129.0	 -129.0	 1.0	 100.0	 0	 257	 10.2795; % NG
	459	 299.26475	 0.0	 293.0	 -293.0	 1.0	 100.0	 1	 586	 12.5295; % PEL
	460	 0.0	 0.0	 125.925	 -125.925	 1.0	 100.0	 0	 23	 10.147; % COW
	461	 0.0	 0.0	 125.925	 -125.925	 1.0	 100.0	 0	 28	 10.147; % NG
	462	 0.0	 0.0	 193.0	 -193.0	 1.0	 100.0	 0	 386	 12.5555; % COW
	463	 337.75	 0.0	 547.5	 -547.5	 1.0	 100.0	 1	 674	 1.5; % COW
	464	 0.0	 0.0	 155.835	 -155.835	 1.0	 100.0	 0	 122	 12.557; % COW
	465	 132.125	 0.0	 155.835	 -155.835	 1.0	 100.0	 1	 253	 11.25; % NG
	468	 440.3585	 0.0	 435.0	 -435.0	 1.0	 100.0	 1	 869	 11.717; % NG
	469	 696.1105	 0.0	 685.0	 -685.0	 1.0	 100.0	 1	 1369	 23.221; % COW
	470	 683.811	 0.0	 668.0	 -668.0	 1.0	 100.0	 1	 1335	 32.622; % COW
	480	 0.0	 0.0	 227.759	 -227.759	 1.0	 100.0	 0	 92	 18.353; % COW
	488	 346.053	 0.0	 344.0	 -344.0	 1.0	 100.0	 1	 687	 5.106; % NG
	489	 124.0495	 0.0	 122.0	 -122.0	 1.0	 100.0	 1	 243	 5.099; % NG
	507	 114.75	 0.0	 114.0	 -114.0	 1.0	 100.0	 1	 228	 1.5; % PEL
	509	 0.0	 0.0	 71.0	 -71.0	 1.0	 78.0	 0	 142	 5.5; % NG
	527	 0.0	 0.0	 31.481	 -31.481	 1.0	 83.96	 0	 54	 10.5; % NG
	546	 0.0	 0.0	 150.0	 -150.0	 1.0	 258.66	 0	 299	 7.9035; % COW
	558	 125.25	 0.0	 125.0	 -125.0	 1.0	 100.0	 1	 249	 1.5; % COW
	588	 0.0	 0.0	 98.094	 -98.094	 1.0	 282.49	 0	 48	 120.0; % NG
	589	 0.0	 0.0	 98.094	 -98.094	 1.0	 281.34	 0	 165	 60.0; % COW
	594	 0.0	 0.0	 93.531	 -93.531	 1.0	 252.98	 0	 129	 67.5; % NG
	595	 0.0	 0.0	 98.094	 -98.094	 1.0	 267.71	 0	 27	 135.0; % NG
	595	 0.0	 0.0	 93.531	 -93.531	 1.0	 256.16	 0	 53	 135.0; % NG
	596	 0.0	 0.0	 371.0	 -371.0	 1.0	 270.08	 0	 741	 67.5; % COW
	596	 0.0	 0.0	 97.048	 -97.048	 1.0	 246.1	 0	 9	 135.0; % NG
	600	 0.0	 0.0	 50.0	 -50.0	 1.0	 55.0	 0	 99	 17.9165; % NG
	601	 91.45825	 0.0	 83.0	 -83.0	 1.0	 55.0	 1	 165	 17.9165; % NG
	606	 0.0	 0.0	 6.205	 -6.205	 1.0	 17.0	 0	 1	 3.0; % NG
	630	 108.25	 0.0	 108.0	 -108.0	 1.0	 15.0	 1	 215	 1.5; % PEL
	634	 0.0	 0.0	 98.094	 -98.094	 1.0	 273.78	 0	 33	 120.0; % NG
	653	 60.25	 0.0	 60.0	 -60.0	 1.0	 12.0	 1	 119	 1.5; % NG
	654	 0.0	 0.0	 116.0	 -116.0	 1.0	 14.4	 0	 232	 7.441; % COW
	686	 60.233	 0.0	 59.0	 -59.0	 1.0	 100.0	 1	 118	 2.466; % COW
	687	 0.0	 0.0	 93.531	 -93.531	 1.0	 267.05	 0	 0	 135.0; % NG
	689	 314.75	 0.0	 281.0	 -281.0	 1.0	 258.02	 1	 562	 67.5; % NG
	694	 224.706	 0.0	 221.0	 -221.0	 1.0	 34.76	 1	 442	 7.412; % NG
	695	 0.0	 0.0	 133.0	 -133.0	 1.0	 42.43	 0	 266	 7.588; % NG
	696	 0.0	 0.0	 97.82	 -97.82	 1.0	 19.32	 0	 24	 7.8825; % COW
	697	 115.35425	 0.0	 290.4	 -290.4	 1.0	 100.0	 1	 219	 11.7085; % NG
	701	 0.0	 0.0	 91.98	 -91.98	 1.0	 1.0	 0	 72	 7.412; % COW
	704	 0.0	 0.0	 16.0	 -16.0	 1.0	 13.0	 0	 31	 1.0; % NG
	708	 0.0	 0.0	 28.0	 -28.0	 1.0	 67.62	 0	 55	 13.0; % PEL
	710	 215.623	 0.0	 215.0	 -215.0	 1.0	 100.0	 1	 429	 2.246; % NG
	732	 0.0	 0.0	 103.295	 -103.295	 1.0	 3.0	 0	 17	 8.3235; % NG
	733	 0.0	 0.0	 23.0	 -23.0	 1.0	 15.0	 0	 45	 1.5; % PEL
	739	 54.88225	 0.0	 96.36	 -96.36	 1.0	 4.0	 1	 102	 7.7645; % COW
	756	 255.5	 0.0	 676.8	 -676.8	 1.0	 449.45	 1	 391	 120.0; % COW
	757	 0.0	 0.0	 174.0	 -174.0	 1.0	 455.56	 0	 347	 120.0; % COW
	757	 227.0	 0.0	 478.8	 -478.8	 1.0	 397.31	 1	 334	 120.0; % NG
	758	 156.25	 0.0	 617.946	 -617.946	 1.0	 616.84	 1	 310	 2.5; % COW
	758	 392.75	 0.0	 617.946	 -617.946	 1.0	 616.84	 1	 783	 2.5; % NUC
	758	 439.25	 0.0	 617.946	 -617.946	 1.0	 616.84	 1	 876	 2.5; % NUC
	759	 396.5	 0.0	 435.6	 -435.6	 1.0	 451.84	 1	 673	 120.0; % COW
	759	 0.0	 0.0	 155.125	 -155.125	 1.0	 416.51	 0	 3	 240.0; % NG
	759	 376.5	 0.0	 435.6	 -435.6	 1.0	 416.51	 1	 633	 120.0; % NG
	784	 224.0	 0.0	 164.0	 -164.0	 1.0	 477.9	 1	 328	 120.0; % NG
	792	 0.0	 0.0	 10.95	 -10.95	 1.0	 30.0	 0	 14	 1.5; % PEL
	805	 0.0	 0.0	 130.0	 -130.0	 1.0	 1.08	 0	 260	 8.1175; % NG
	805	 0.0	 0.0	 96.36	 -96.36	 1.0	 1.0	 0	 20	 7.7645; % COW
	805	 18.5295	 0.0	 134.4	 -134.4	 1.0	 1.0	 1	 29	 8.059; % NG
	809	 0.0	 0.0	 25.0	 -25.0	 1.0	 60.0	 0	 49	 12.5; % PEL
	812	 6.41675	 0.0	 214.8	 -214.8	 1.0	 4.33	 1	 12	 0.8335; % NG
	830	 0.0	 0.0	 100.74	 -100.74	 1.0	 0.43	 0	 194	 8.1175; % NG
...
];

%% generator cost data
%	2	startup	shutdown	n	c(n-1)	...	c0
mpc.gencost = [
	2	 0.0	 0.0	 3	   0.000000	   1.796000	 7812.000000; % NG
	2	 0.0	 0.0	 3	   0.000000	   4.025000	 17120.000000; % NG
	2	 0.0	 0.0	 3	   0.000000	   3.483000	 16020.000000; % NG
	2	 0.0	 0.0	 3	   0.000000	  42.270000	 1258.000000; % NG
	2	 0.0	 0.0	 3	   0.000000	  28.510000	 1864.000000; % NG
	2	 0.0	 0.0	 3	   0.000000	   9.723000	 238.000000; % NG
	2	 0.0	 0.0	 3	   0.000000	  56.190000	 116.600000; % PEL
	2	 0.0	 0.0	 3	   0.000000	  25.960000	  99.670000; % NG
	2	 0.0	 0.0	 3	   0.000000	   2.005000	 7668.000000; % NG
	2	 0.0	 0.0	 3	   0.059040	  35.310000	 7969.000000; % NG
	2	 0.0	 0.0	 3	   0.022750	  26.830000	 7297.000000; % NG
	2	 0.0	 0.0	 3	   0.016100	  23.730000	 6939.000000; % COW
	2	 0.0	 0.0	 3	   0.008794	  19.390000	 1239.000000; % NG
	2	 0.0	 0.0	 3	   0.017770	  27.610000	 815.100000; % NG
	2	 0.0	 0.0	 3	   0.022860	  27.650000	 6526.000000; % COW
	2	 0.0	 0.0	 3	   0.000000	   0.824300	 1285.000000; % NG
	2	 0.0	 0.0	 3	   0.000000	  12.790000	 361.000000; % COW
	2	 0.0	 0.0	 3	   0.000000	   2.416000	 150.000000; % NG
	2	 0.0	 0.0	 3	   0.000000	   2.678000	 101.200000; % NG
	2	 0.0	 0.0	 3	   0.000000	   1.279000	 1043.000000; % NG
	2	 0.0	 0.0	 3	   0.000000	   1.690000	  80.830000; % NG
	2	 0.0	 0.0	 3	   1.550000	   7.233000	 268.000000; % PEL
	2	 0.0	 0.0	 3	   0.000000	  36.650000	 4912.000000; % PEL
	2	 0.0	 0.0	 3	   0.000000	   5.708000	 165.300000; % NG
	2	 0.0	 0.0	 3	   0.000000	   5.867000	 270.900000; % NG
	2	 0.0	 0.0	 3	   0.000000	   1.762000	  93.660000; % NG
	2	 0.0	 0.0	 3	   0.000000	   1.158000	 1013.000000; % NG
	2	 0.0	 0.0	 3	   0.000000	   1.254000	 1116.000000; % COW
	2	 0.0	 0.0	 3	   0.016770	  26.820000	 821.900000; % NG
	2	 0.0	 0.0	 3	   0.016770	  26.820000	 839.900000; % NG
	2	 0.0	 0.0	 3	   0.016770	  26.820000	 803.900000; % COW
	2	 0.0	 0.0	 3	   0.146100	   0.000000	 373.700000; % COW
	2	 0.0	 0.0	 3	   0.000000	  15.060000	 820.100000; % NG
	2	 0.0	 0.0	 3	   0.000000	   1.434000	 1135.000000; % COW
	2	 0.0	 0.0	 3	   0.000000	  51.540000	  99.340000; % PEL
	2	 0.0	 0.0	 3	   2.452000	 110.800000	 -211.200000; % NG
	2	 0.0	 0.0	 3	   0.000000	   0.474000	 787.600000; % NG
	2	 0.0	 0.0	 3	   0.000000	   2.575000	 322.900000; % COW
	2	 0.0	 0.0	 3	   0.000000	   1.293000	  99.840000; % NG
	2	 0.0	 0.0	 3	   0.000000	   1.112000	 1212.000000; % NG
	2	 0.0	 0.0	 3	   0.000000	   1.217000	 211.800000; % NG
	2	 0.0	 0.0	 3	   0.000000	   0.919100	 1020.000000; % NG
	2	 0.0	 0.0	 3	   0.000000	   1.171000	 1186.000000; % NG
	2	 0.0	 0.0	 3	   0.000000	   1.273000	 923.200000; % NG
	2	 0.0	 0.0	 3	   0.018370	  28.070000	 762.000000; % NG
	2	 0.0	 0.0	 3	   0.000000	   1.055000	 8458.000000; % NG
	2	 0.0	 0.0	 3	   0.000000	   2.175000	 7549.000000; % NG
	2	 0.0	 0.0	 3	   0.000000	   0.368500	 8809.000000; % COW
	2	 0.0	 0.0	 3	   0.000000	   1.019000	 8174.000000; % NG
	2	 0.0	 0.0	 3	   0.000000	  18.110000	 177.100000; % PEL
	2	 0.0	 0.0	 3	   0.051490	  40.590000	 1679.000000; % NG
	2	 0.0	 0.0	 3	   0.111500	  55.060000	 2769.000000; % NG
	2	 0.0	 0.0	 3	   0.000000	   1.876000	 1436.000000; % NG
	2	 0.0	 0.0	 3	   0.398100	   8.848000	 182.300000; % NG
	2	 0.0	 0.0	 3	   0.016770	  26.820000	 815.900000; % NG
	2	 0.0	 0.0	 3	   0.016770	  26.820000	 833.900000; % NG
	2	 0.0	 0.0	 3	   0.016770	  26.820000	 845.900000; % NG
	2	 0.0	 0.0	 3	   0.016770	  26.820000	 815.900000; % NG
	2	 0.0	 0.0	 3	   0.000000	  47.680000	 370.700000; % NG
	2	 0.0	 0.0	 3	   0.000000	   2.487000	 1418.000000; % COW
	2	 0.0	 0.0	 3	   0.000000	  18.240000	 271.500000; % COW
	2	 0.0	 0.0	 3	   0.000000	  13.830000	  92.570000; % PEL
	2	 0.0	 0.0	 3	   1.041000	  12.320000	 203.900000; % PEL
	2	 0.0	 0.0	 3	   0.000000	   1.143000	 1225.000000; % NG
	2	 0.0	 0.0	 3	   0.000000	   4.968000	 288.200000; % NG
	2	 0.0	 0.0	 3	   0.000000	   1.710000	 104.500000; % NG
	2	 0.0	 0.0	 3	   0.000000	   1.713000	 420.500000; % NG
	2	 0.0	 0.0	 3	   0.000000	   1.141000	 998.400000; % NG
	2	 0.0	 0.0	 3	   0.000000	   1.259000	 1136.000000; % COW
	2	 0.0	 0.0	 3	   0.008346	  18.890000	 1248.000000; % NG
	2	 0.0	 0.0	 3	   0.000000	   1.482000	 1110.000000; % NG
	2	 0.0	 0.0	 3	   0.000000	   1.461000	 1686.000000; % NG
	2	 0.0	 0.0	 3	   0.000000	   0.802100	 1334.000000; % COW
	2	 0.0	 0.0	 3	   0.000000	   0.910400	 1514.000000; % NG
	2	 0.0	 0.0	 3	   0.000000	   1.108000	 1498.000000; % NG
	2	 0.0	 0.0	 3	   0.000000	   0.995800	 852.900000; % NG
	2	 0.0	 0.0	 3	   0.000000	   0.542800	 1098.000000; % NG
	2	 0.0	 0.0	 3	   0.000000	   0.467000	 1084.000000; % COW
	2	 0.0	 0.0	 3	   0.000000	   2.716000	 1719.000000; % COW
	2	 0.0	 0.0	 3	   0.000000	   1.335000	 1244.000000; % NG
	2	 0.0	 0.0	 3	   0.000000	   1.040000	 1265.000000; % COW
	2	 0.0	 0.0	 3	   0.000000	   1.197000	 1157.000000; % NG
	2	 0.0	 0.0	 3	   0.000000	   0.986400	 975.000000; % NG
	2	 0.0	 0.0	 3	   0.000000	   1.036000	 946.000000; % NG
	2	 0.0	 0.0	 3	   0.000000	   0.957900	 1260.000000; % NG
	2	 0.0	 0.0	 3	   0.000000	   0.677800	 1833.000000; % NG
	2	 0.0	 0.0	 3	   0.000000	   0.465300	 1664.000000; % NG
	2	 0.0	 0.0	 3	   0.000000	   1.662000	 1735.000000; % COW
	2	 0.0	 0.0	 3	   0.000000	   0.150900	 1443.000000; % COW
	2	 0.0	 0.0	 3	   0.000000	   0.491700	 1470.000000; % NG
	2	 0.0	 0.0	 3	   0.014700	  17.650000	 1050.000000; % NG
	2	 0.0	 0.0	 3	   0.000000	  24.400000	 1118.000000; % NG
	2	 0.0	 0.0	 3	   0.000000	   0.359700	 2362.000000; % COW
	2	 0.0	 0.0	 3	   0.000000	   1.027000	 1786.000000; % COW
	2	 0.0	 0.0	 3	   0.000000	   0.784100	 1607.000000; % COW
	2	 0.0	 0.0	 3	   0.000000	   0.765300	 1471.000000; % NG
	2	 0.0	 0.0	 3	   0.000000	   0.125300	 1610.000000; % NG
	2	 0.0	 0.0	 3	   0.000000	   0.581900	 1805.000000; % COW
	2	 0.0	 0.0	 3	   0.000000	   2.078000	 1819.000000; % COW
	2	 0.0	 0.0	 3	   0.000000	   1.836000	 1583.000000; % COW
	2	 0.0	 0.0	 3	   0.000000	   2.003000	 1737.000000; % COW
	2	 0.0	 0.0	 3	   0.000000	   1.317000	 1013.000000; % NG
	2	 0.0	 0.0	 3	   0.000000	   1.806000	 1107.000000; % COW
	2	 0.0	 0.0	 3	   0.000000	   0.880800	 1044.000000; % COW
	2	 0.0	 0.0	 3	   0.000000	   1.245000	 1149.000000; % COW
	2	 0.0	 0.0	 3	   0.000000	   0.415100	 2467.000000; % COW
	2	 0.0	 0.0	 3	   0.000000	   1.524000	 1198.000000; % NG
	2	 0.0	 0.0	 3	   0.000000	   1.951000	 1015.000000; % NG
	2	 0.0	 0.0	 3	   0.000000	   1.111000	 1043.000000; % NG
	2	 0.0	 0.0	 3	   0.000000	   1.240000	 1129.000000; % NG
	2	 0.0	 0.0	 3	   0.000000	   1.011000	 1314.000000; % COW
	2	 0.0	 0.0	 3	   0.000000	   1.249000	 1342.000000; % NG
	2	 0.0	 0.0	 3	   0.000000	   1.784000	 209.300000; % NG
	2	 0.0	 0.0	 3	   0.000000	   1.067000	 1059.000000; % COW
	2	 0.0	 0.0	 3	   0.000000	   0.935900	 1497.000000; % COW
	2	 0.0	 0.0	 3	   0.000000	   1.248000	 1355.000000; % NG
	2	 0.0	 0.0	 3	   0.000000	   0.801400	 270.500000; % NG
	2	 0.0	 0.0	 3	   0.000000	   1.230000	 1269.000000; % NG
	2	 0.0	 0.0	 3	   0.000000	   0.310000	 1647.000000; % COW
	2	 0.0	 0.0	 3	   0.000000	   9.514000	 343.600000; % NG
	2	 0.0	 0.0	 3	   0.000000	   8.257000	 370.400000; % NG
	2	 0.0	 0.0	 3	   0.000000	  11.920000	 447.600000; % NG
	2	 0.0	 0.0	 3	   0.000000	  11.920000	 405.600000; % NG
	2	 0.0	 0.0	 3	   0.000000	  11.920000	 417.600000; % NG
	2	 0.0	 0.0	 3	   0.046300	   2.324000	 400.500000; % NG
	2	 0.0	 0.0	 3	   0.000000	   0.913300	 1339.000000; % COW
	2	 0.0	 0.0	 3	   0.000000	   0.741300	 1649.000000; % NG
	2	 0.0	 0.0	 3	   0.011180	  21.880000	 1070.000000; % NG
	2	 0.0	 0.0	 3	   0.011180	  21.880000	 1082.000000; % NG
	2	 0.0	 0.0	 3	   0.000000	   0.133000	 1602.000000; % NG
	2	 0.0	 0.0	 3	   0.000000	   0.522900	 1406.000000; % NG
	2	 0.0	 0.0	 3	   0.000000	   0.497900	 880.400000; % NG
	2	 0.0	 0.0	 3	   0.000000	   1.268000	 977.700000; % NG
	2	 0.0	 0.0	 3	   0.000000	   3.710000	 3175.000000; % COW
	2	 0.0	 0.0	 3	   0.002262	   0.686200	 1779.000000; % COW
	2	 0.0	 0.0	 3	   0.000000	   0.912300	 1402.000000; % NG
	2	 0.0	 0.0	 3	   0.000000	   0.889600	 1244.000000; % NG
	2	 0.0	 0.0	 3	   0.002267	   0.687000	 1771.000000; % PEL
	2	 0.0	 0.0	 3	   0.000000	   0.685700	 1558.000000; % COW
	2	 0.0	 0.0	 3	   0.000000	   2.214000	 1683.000000; % NG
	2	 0.0	 0.0	 3	   0.000000	   2.287000	 2297.000000; % COW
	2	 0.0	 0.0	 3	   0.000000	  15.150000	 199.500000; % COW
	2	 0.0	 0.0	 3	   0.000000	   2.571000	 2500.000000; % COW
	2	 0.0	 0.0	 3	   0.000000	   2.275000	 2060.000000; % NG
	2	 0.0	 0.0	 3	   0.000000	   0.597000	 1563.000000; % NG
	2	 0.0	 0.0	 3	   0.000000	   0.425800	 3301.000000; % COW
	2	 0.0	 0.0	 3	   0.000000	   0.113700	 8845.000000; % COW
	2	 0.0	 0.0	 3	   0.001823	   6.198000	 3377.000000; % COW
	2	 0.0	 0.0	 3	   0.000000	  30.830000	 795.100000; % NG
	2	 0.0	 0.0	 3	   0.000000	  30.870000	 805.600000; % NG
	2	 0.0	 0.0	 3	   0.000000	   5.261000	 186.100000; % PEL
	2	 0.0	 0.0	 3	   0.000000	   2.736000	 644.600000; % NG
	2	 0.0	 0.0	 3	   0.102500	  63.340000	 778.800000; % NG
	2	 0.0	 0.0	 3	   0.000000	   2.196000	 1118.000000; % COW
	2	 0.0	 0.0	 3	   0.000000	   7.627000	 197.000000; % COW
	2	 0.0	 0.0	 3	   0.000000	   2.097000	 7439.000000; % NG
	2	 0.0	 0.0	 3	   0.000000	   2.316000	 8014.000000; % COW
	2	 0.0	 0.0	 3	   0.000000	   1.830000	 9203.000000; % NG
	2	 0.0	 0.0	 3	   0.000000	   2.391000	 8891.000000; % NG
	2	 0.0	 0.0	 3	   0.000000	   0.846500	 8952.000000; % NG
	2	 0.0	 0.0	 3	   0.000000	   4.441000	 14120.000000; % COW
	2	 0.0	 0.0	 3	   0.000000	   2.550000	 9278.000000; % NG
	2	 0.0	 0.0	 3	   0.000000	   7.437000	 1099.000000; % NG
	2	 0.0	 0.0	 3	   0.000000	  10.080000	 2327.000000; % NG
	2	 0.0	 0.0	 3	   0.000000	  17.120000	 222.000000; % NG
	2	 0.0	 0.0	 3	   0.000000	  83.050000	  68.470000; % PEL
	2	 0.0	 0.0	 3	   0.000000	   1.996000	 7966.000000; % NG
	2	 0.0	 0.0	 3	   0.000000	  67.340000	  50.280000; % NG
	2	 0.0	 0.0	 3	   0.008412	  18.970000	 1242.000000; % COW
	2	 0.0	 0.0	 3	   0.058840	   3.547000	 347.700000; % COW
	2	 0.0	 0.0	 3	   0.000000	   0.368500	 8833.000000; % NG
	2	 0.0	 0.0	 3	   0.000000	   1.201000	 9185.000000; % NG
	2	 0.0	 0.0	 3	   0.008479	  19.040000	 1242.000000; % NG
	2	 0.0	 0.0	 3	   0.000000	   0.496100	 1207.000000; % NG
	2	 0.0	 0.0	 3	   0.000000	   1.049000	 825.200000; % COW
	2	 0.0	 0.0	 3	   0.000000	   1.400000	 1885.000000; % NG
	2	 0.0	 0.0	 3	   0.007944	  16.740000	 1160.000000; % COW
	2	 0.0	 0.0	 3	   0.000000	  45.630000	  92.900000; % NG
	2	 0.0	 0.0	 3	   0.000000	  11.560000	 1429.000000; % PEL
	2	 0.0	 0.0	 3	   0.000000	  13.470000	 375.500000; % NG
	2	 0.0	 0.0	 3	   0.000000	   2.699000	 1398.000000; % NG
	2	 0.0	 0.0	 3	   0.000000	  11.180000	 299.600000; % PEL
	2	 0.0	 0.0	 3	   0.000000	   2.788000	 1234.000000; % COW
	2	 0.0	 0.0	 3	   0.000000	   4.435000	 21260.000000; % COW
	2	 0.0	 0.0	 3	   0.000000	   2.375000	 18750.000000; % COW
	2	 0.0	 0.0	 3	   0.000000	   1.361000	 15420.000000; % NG
	2	 0.0	 0.0	 3	   0.000000	   0.495900	 408.300000; % COW
	2	 0.0	 0.0	 3	   0.000000	   0.082390	 276.500000; % NUC
	2	 0.0	 0.0	 3	   0.000000	   0.464800	 271.400000; % NUC
	2	 0.0	 0.0	 3	   0.000000	   2.498000	 10630.000000; % COW
	2	 0.0	 0.0	 3	   0.000000	   2.433000	 10510.000000; % NG
	2	 0.0	 0.0	 3	   0.000000	   0.876900	 12080.000000; % NG
	2	 0.0	 0.0	 3	   0.000000	   0.890500	 15970.000000; % NG
	2	 0.0	 0.0	 3	   0.000000	   3.049000	 112.700000; % PEL
	2	 0.0	 0.0	 3	   0.000000	   2.138000	 1173.000000; % NG
	2	 0.0	 0.0	 3	   0.000000	   1.281000	 882.400000; % COW
	2	 0.0	 0.0	 3	   0.000000	   1.238000	 1078.000000; % NG
	2	 0.0	 0.0	 3	   0.000000	  13.240000	 1178.000000; % PEL
	2	 0.0	 0.0	 3	   0.000000	   0.975200	 130.100000; % NG
	2	 0.0	 0.0	 3	   0.000000	   1.404000	 1106.000000; % NG
...
];

%% branch data
%	fbus	tbus	r	x	b	rateA	rateB	rateC	ratio	angle	status	angmin	angmax
mpc.branch = [
	1	 2	 2e-05	 0.00021	 0.0	 876.0	 1051.2	 1576.8	 0.0	 0.0	 1	 -30.0	 30.0;
	1	 10	 0.00593	 0.04093	 0.07215	 341.0	 409.2	 613.8	 0.0	 0.0	 1	 -30.0	 30.0;
	2	 507	 0.0001	 0.01	 0.0	 83.7	 100.44	 150.66	 0.0	 0.0	 1	 -30.0	 30.0;
	3	 4	 2e-05	 0.00021	 0.0	 876.0	 1051.2	 1576.8	 0.0	 0.0	 1	 -30.0	 30.0;
	3	 8	 0.00777	 0.04128	 0.06391	 197.0	 236.4	 354.6	 0.0	 0.0	 1	 -30.0	 30.0;
	4	 1027	 0.0001	 0.01	 0.0	 198.78	 238.54	 357.81	 0.0	 0.0	 1	 -30.0	 30.0;
	5	 6	 2e-05	 0.00021	 0.0	 876.0	 1051.2	 1576.8	 0.0	 0.0	 1	 -30.0	 30.0;
	5	 9	 0.00488	 0.03362	 0.05961	 341.0	 409.2	 613.8	 0.0	 0.0	 1	 -30.0	 30.0;
	6	 217	 0.0001	 0.01	 0.0	 445.51	 534.61	 801.91	 0.0	 0.0	 1	 -30.0	 30.0;
	7	 8	 2e-05	 0.00021	 0.0	 876.0	 1051.2	 1576.8	 0.0	 0.0	 1	 -30.0	 30.0;
	7	 10	 0.00455	 0.03157	 0.05531	 231.0	 277.2	 415.8	 0.0	 0.0	 1	 -30.0	 30.0;
	9	 10	 2e-05	 0.00021	 0.0	 876.0	 1051.2	 1576.8	 0.0	 0.0	 1	 -30.0	 30.0;
	9	 2095	 0.0001	 0.01	 0.0	 140.51	 168.61	 252.91	 0.0	 0.0	 1	 -30.0	 30.0;
	11	 23	 0.03868	 0.10116	 0.0108	 87.61	 105.13	 157.7	 0.0	 0.0	 1	 -30.0	 30.0;
	11	 26	 0.00719	 0.02248	 0.00246	 50.0	 60.0	 90.0	 0.0	 0.0	 1	 -30.0	 30.0;
	11	 43	 0.01636	 0.04132	 0.0045	 50.0	 60.0	 90.0	 0.0	 0.0	 1	 -30.0	 30.0;
	12	 14	 0.00752	 0.02207	 0.00251	 80.22	 96.26	 144.4	 0.0	 0.0	 1	 -30.0	 30.0;
	12	 25	 0.00719	 0.02256	 0.00247	 50.0	 60.0	 90.0	 0.0	 0.0	 1	 -30.0	 30.0;
	13	 59	 0.02256	 0.04314	 0.004	 50.0	 60.0	 90.0	 0.0	 0.0	 1	 -30.0	 30.0;
	14	 245	 0.0001	 0.01	 0.0	 83.7	 100.44	 150.66	 0.0	 0.0	 1	 -30.0	 30.0;
	15	 16	 0.00058	 0.00157	 0.00021	 50.0	 60.0	 90.0	 0.0	 0.0	 1	 -30.0	 30.0;
	16	 58	 0.00107	 0.00298	 0.0004	 112.72	 135.26	 202.9	 0.0	 0.0	 1	 -30.0	 30.0;
	16	 64	 0.00182	 0.00529	 0.00071	 111.39	 133.67	 200.5	 0.0	 0.0	 1	 -30.0	 30.0;
	17	 20	 0.00496	 0.0162	 0.00164	 75.0	 90.0	 135.0	 0.0	 0.0	 1	 -30.0	 30.0;
	18	 62	 0.00033	 0.00099	 0.00013	 50.0	 60.0	 90.0	 0.0	 0.0	 1	 -30.0	 30.0;
	19	 63	 0.00033	 0.00091	 0.00012	 50.0	 60.0	 90.0	 0.0	 0.0	 1	 -30.0	 30.0;
	20	 28	 0.00934	 0.0257	 0.00253	 63.0	 75.6	 113.4	 0.0	 0.0	 1	 -30.0	 30.0;
	20	 30	 0.01504	 0.04033	 0.00401	 63.0	 75.6	 113.4	 0.0	 0.0	 1	 -30.0	 30.0;
	21	 22	 8e-05	 0.00083	 0.0	 438.0	 525.6	 788.4	 0.0	 0.0	 1	 -30.0	 30.0;
	21	 44	 0.00512	 0.01669	 0.00168	 114.0	 136.8	 205.2	 0.0	 0.0	 1	 -30.0	 30.0;
	22	 46	 0.02826	 0.0924	 0.00933	 99.0	 118.8	 178.2	 0.0	 0.0	 1	 -30.0	 30.0;
	24	 46	 0.01669	 0.04364	 0.00566	 106.38	 127.66	 191.48	 0.0	 0.0	 1	 -30.0	 30.0;
	24	 271	 0.0001	 0.01	 0.0	 83.7	 100.44	 150.66	 0.0	 0.0	 1	 -30.0	 30.0;
	25	 26	 8e-05	 0.00083	 0.0	 50.0	 60.0	 90.0	 0.0	 0.0	 1	 -30.0	 30.0;
	25	 38	 0.01595	 0.0414	 0.00404	 50.0	 60.0	 90.0	 0.0	 0.0	 1	 -30.0	 30.0;
	26	 37	 0.01595	 0.04132	 0.00403	 50.0	 60.0	 90.0	 0.0	 0.0	 1	 -30.0	 30.0;
	26	 41	 0.02926	 0.0514	 0.00489	 50.0	 60.0	 90.0	 0.0	 0.0	 1	 -30.0	 30.0;
	27	 28	 0.00554	 0.00959	 0.00095	 50.0	 60.0	 90.0	 0.0	 0.0	 1	 -30.0	 30.0;
	28	 64	 0.0057	 0.01479	 0.0015	 63.0	 75.6	 113.4	 0.0	 0.0	 1	 -30.0	 30.0;
	29	 30	 0.00017	 0.00041	 6e-05	 75.0	 90.0	 135.0	 0.0	 0.0	 1	 -30.0	 30.0;
	30	 65	 8e-05	 0.00025	 2e-05	 75.0	 90.0	 135.0	 0.0	 0.0	 1	 -30.0	 30.0;
	31	 32	 8e-05	 0.00083	 0.0	 438.0	 525.6	 788.4	 0.0	 0.0	 1	 -30.0	 30.0;
	31	 69	 0.01298	 0.04074	 0.0045	 75.0	 90.0	 135.0	 0.0	 0.0	 1	 -30.0	 30.0;
	32	 530	 0.0001	 0.01	 0.0	 83.7	 100.44	 150.66	 0.0	 0.0	 1	 -30.0	 30.0;
	33	 34	 0.00165	 0.00537	 0.00054	 50.0	 60.0	 90.0	 0.0	 0.0	 1	 -30.0	 30.0;
	34	 54	 0.01926	 0.06198	 0.00647	 103.29	 123.95	 185.92	 0.0	 0.0	 1	 -30.0	 30.0;
	34	 68	 0.01041	 0.03388	 0.00346	 114.08	 136.9	 205.34	 0.0	 0.0	 1	 -30.0	 30.0;
	35	 37	 0.0005	 0.00107	 0.00014	 50.0	 60.0	 90.0	 0.0	 0.0	 1	 -30.0	 30.0;
	36	 38	 0.0005	 0.00116	 0.00014	 50.0	 60.0	 90.0	 0.0	 0.0	 1	 -30.0	 30.0;
	37	 64	 0.03174	 0.08347	 0.00816	 50.0	 60.0	 90.0	 0.0	 0.0	 1	 -30.0	 30.0;
	38	 65	 0.03174	 0.08347	 0.00816	 50.0	 60.0	 90.0	 0.0	 0.0	 1	 -30.0	 30.0;
	39	 66	 0.03826	 0.04818	 0.00455	 83.83	 100.59	 150.89	 0.0	 0.0	 1	 -30.0	 30.0;
	39	 1234	 0.0001	 0.01	 0.0	 83.7	 100.44	 150.66	 0.0	 0.0	 1	 -30.0	 30.0;
	40	 41	 8e-05	 0.00083	 0.0	 438.0	 525.6	 788.4	 0.0	 0.0	 1	 -30.0	 30.0;
	40	 59	 0.04025	 0.07132	 0.00662	 47.0	 56.4	 84.6	 0.0	 0.0	 1	 -30.0	 30.0;
	42	 43	 0.00058	 0.00099	 0.0001	 50.0	 60.0	 90.0	 0.0	 0.0	 1	 -30.0	 30.0;
	43	 2259	 0.0001	 0.01	 0.0	 50.0	 60.0	 90.0	 0.0	 0.0	 1	 -30.0	 30.0;
	44	 45	 8e-05	 0.00083	 0.0	 438.0	 525.6	 788.4	 0.0	 0.0	 1	 -30.0	 30.0;
	44	 1951	 0.0001	 0.01	 0.0	 83.7	 100.44	 150.66	 0.0	 0.0	 1	 -30.0	 30.0;
	45	 52	 0.03438	 0.11107	 0.01156	 50.0	 60.0	 90.0	 0.0	 0.0	 1	 -30.0	 30.0;
	45	 70	 0.01041	 0.03405	 0.00418	 114.0	 136.8	 205.2	 0.0	 0.0	 1	 -30.0	 30.0;
	46	 49	 0.03488	 0.0881	 0.01298	 117.72	 141.26	 211.9	 0.0	 0.0	 1	 -30.0	 30.0;
	46	 53	 0.00669	 0.0162	 0.00254	 156.14	 187.36	 281.04	 0.0	 0.0	 1	 -30.0	 30.0;
	46	 2246	 0.0001	 0.01	 0.0	 83.7	 100.44	 150.66	 0.0	 0.0	 1	 -30.0	 30.0;
	47	 48	 8e-05	 0.00083	 0.0	 438.0	 525.6	 788.4	 0.0	 0.0	 1	 -30.0	 30.0;
	47	 69	 0.0038	 0.01083	 0.00145	 75.0	 90.0	 135.0	 0.0	 0.0	 1	 -30.0	 30.0;
	48	 61	 0.00711	 0.02074	 0.00265	 75.0	 90.0	 135.0	 0.0	 0.0	 1	 -30.0	 30.0;
	49	 1344	 0.0001	 0.01	 0.0	 86.7	 104.04	 156.06	 0.0	 0.0	 1	 -30.0	 30.0;
	50	 51	 0.00017	 0.00041	 5e-05	 50.0	 60.0	 90.0	 0.0	 0.0	 1	 -30.0	 30.0;
	51	 57	 0.00066	 0.00107	 0.00018	 97.82	 117.38	 176.08	 0.0	 0.0	 1	 -30.0	 30.0;
	51	 59	 0.02702	 0.05752	 0.00544	 97.82	 117.39	 176.08	 0.0	 0.0	 1	 -30.0	 30.0;
	52	 69	 0.0262	 0.08496	 0.00871	 99.0	 118.8	 178.2	 0.0	 0.0	 1	 -30.0	 30.0;
	53	 2148	 0.0001	 0.01	 0.0	 128.96	 154.76	 232.13	 0.0	 0.0	 1	 -30.0	 30.0;
	54	 55	 8e-05	 0.00083	 0.0	 438.0	 525.6	 788.4	 0.0	 0.0	 1	 -30.0	 30.0;
	55	 64	 0.00231	 0.00744	 0.00077	 75.0	 90.0	 135.0	 0.0	 0.0	 1	 -30.0	 30.0;
	56	 57	 8e-05	 0.00083	 0.0	 438.0	 525.6	 788.4	 0.0	 0.0	 1	 -30.0	 30.0;
	56	 66	 0.00727	 0.00975	 0.00189	 80.63	 96.76	 145.14	 0.0	 0.0	 1	 -30.0	 30.0;
	58	 2244	 0.0001	 0.01	 0.0	 83.7	 100.44	 150.66	 0.0	 0.0	 1	 -30.0	 30.0;
	59	 68	 0.0119	 0.03686	 0.00418	 129.05	 154.86	 232.29	 0.0	 0.0	 1	 -30.0	 30.0;
	60	 61	 0.00124	 0.00347	 0.00046	 50.0	 60.0	 90.0	 0.0	 0.0	 1	 -30.0	 30.0;
	62	 63	 8e-05	 0.00083	 0.0	 438.0	 525.6	 788.4	 0.0	 0.0	 1	 -30.0	 30.0;
	62	 65	 0.01008	 0.03182	 0.00345	 75.0	 90.0	 135.0	 0.0	 0.0	 1	 -30.0	 30.0;
	63	 68	 0.0176	 0.05686	 0.00587	 97.87	 117.44	 176.17	 0.0	 0.0	 1	 -30.0	 30.0;
	66	 67	 8e-05	 0.00083	 0.0	 50.0	 60.0	 90.0	 0.0	 0.0	 1	 -30.0	 30.0;
	67	 1980	 0.0001	 0.01	 0.0	 83.7	 100.44	 150.66	 0.0	 0.0	 1	 -30.0	 30.0;
	71	 72	 2e-05	 0.00021	 0.0	 50.0	 60.0	 90.0	 0.0	 0.0	 1	 -30.0	 30.0;
	71	 76	 0.00568	 0.04012	 0.07033	 317.0	 380.4	 570.6	 0.0	 0.0	 1	 -30.0	 30.0;
	71	 81	 0.00105	 0.00733	 0.01258	 231.0	 277.2	 415.8	 0.0	 0.0	 1	 -30.0	 30.0;
	73	 74	 2e-05	 0.00021	 0.0	 50.0	 60.0	 90.0	 0.0	 0.0	 1	 -30.0	 30.0;
	73	 75	 0.01062	 0.0789	 0.12085	 631.86	 758.23	 1137.35	 0.0	 0.0	 1	 -30.0	 30.0;
	73	 78	 0.01058	 0.07762	 0.12203	 596.86	 716.23	 1074.35	 0.0	 0.0	 1	 -30.0	 30.0;
	75	 76	 2e-05	 0.00021	 0.0	 876.0	 1051.2	 1576.8	 0.0	 0.0	 1	 -30.0	 30.0;
	75	 79	 0.00469	 0.03486	 0.05338	 317.0	 380.4	 570.6	 0.0	 0.0	 1	 -30.0	 30.0;
	75	 150	 0.0018	 0.01616	 0.0484	 754.02	 904.82	 1357.24	 0.0	 0.0	 1	 -30.0	 30.0;
	76	 150	 0.0018	 0.01616	 0.0484	 734.76	 881.71	 1322.57	 0.0	 0.0	 1	 -30.0	 30.0;
	77	 1621	 0.0001	 0.01	 0.0	 399.91	 479.89	 719.84	 0.0	 0.0	 1	 -30.0	 30.0;
	78	 581	 0.0001	 0.01	 0.0	 179.0	 196.9	 214.8	 0.0	 0.0	 1	 -30.0	 30.0;
	79	 80	 2e-05	 0.00021	 0.0	 50.0	 60.0	 90.0	 0.0	 0.0	 1	 -30.0	 30.0;
	79	 82	 0.00744	 0.05397	 0.09307	 231.0	 277.2	 415.8	 0.0	 0.0	 1	 -30.0	 30.0;
	81	 82	 2e-05	 0.00021	 0.0	 50.0	 60.0	 90.0	 0.0	 0.0	 1	 -30.0	 30.0;
	83	 108	 0.01011	 0.03425	 0.00339	 50.0	 60.0	 90.0	 0.0	 0.0	 1	 -30.0	 30.0;
	83	 124	 0.00228	 0.00772	 0.00076	 120.0	 144.0	 216.0	 0.0	 0.0	 1	 -30.0	 30.0;
	84	 114	 0.0138	 0.02421	 0.0023	 90.58	 108.7	 163.04	 0.0	 0.0	 1	 -30.0	 30.0;
	84	 143	 0.01877	 0.03282	 0.00313	 107.46	 128.95	 193.43	 0.0	 0.0	 1	 -30.0	 30.0;
	85	 92	 9e-05	 0.00069	 7e-05	 186.5	 223.8	 335.7	 0.0	 0.0	 1	 -30.0	 30.0;
	85	 101	 0.00555	 0.01818	 0.00186	 148.68	 178.42	 267.62	 0.0	 0.0	 1	 -30.0	 30.0;
	86	 140	 0.02182	 0.07107	 0.00737	 120.0	 144.0	 216.0	 0.0	 0.0	 1	 -30.0	 30.0;
	86	 1637	 0.0001	 0.01	 0.0	 146.4	 175.68	 263.52	 0.0	 0.0	 1	 -30.0	 30.0;
	87	 113	 0.05033	 0.13388	 0.01203	 50.0	 60.0	 90.0	 0.0	 0.0	 1	 -30.0	 30.0;
	87	 141	 0.02851	 0.09843	 0.00896	 50.0	 60.0	 90.0	 0.0	 0.0	 1	 -30.0	 30.0;
	88	 91	 0.02174	 0.05	 0.00501	 108.6	 130.32	 195.48	 0.0	 0.0	 1	 -30.0	 30.0;
	88	 107	 0.03471	 0.06744	 0.00663	 104.92	 125.9	 188.86	 0.0	 0.0	 1	 -30.0	 30.0;
	89	 101	 0.02058	 0.0676	 0.00569	 164.41	 197.3	 295.95	 0.0	 0.0	 1	 -30.0	 30.0;
	89	 112	 0.01983	 0.05504	 0.00595	 76.0	 91.2	 136.8	 0.0	 0.0	 1	 -30.0	 30.0;
	89	 123	 0.00926	 0.0186	 0.00181	 76.0	 91.2	 136.8	 0.0	 0.0	 1	 -30.0	 30.0;
	89	 144	 0.00375	 0.01025	 0.00103	 102.0	 122.4	 183.6	 0.0	 0.0	 1	 -30.0	 30.0;
	90	 107	 0.04669	 0.09545	 0.00939	 120.63	 144.76	 217.13	 0.0	 0.0	 1	 -30.0	 30.0;
	90	 663	 0.0001	 0.01	 0.0	 83.7	 100.44	 150.66	 0.0	 0.0	 1	 -30.0	 30.0;
	91	 135	 0.04463	 0.09421	 0.00963	 92.49	 110.99	 166.48	 0.0	 0.0	 1	 -30.0	 30.0;
	92	 93	 8e-05	 0.00083	 0.0	 50.0	 60.0	 90.0	 0.0	 0.0	 1	 -30.0	 30.0;
	92	 105	 0.00064	 0.00483	 0.00047	 185.52	 222.62	 333.93	 0.0	 0.0	 1	 -30.0	 30.0;
	92	 140	 0.01289	 0.04198	 0.00436	 120.0	 144.0	 216.0	 0.0	 0.0	 1	 -30.0	 30.0;
	94	 119	 0.04152	 0.07429	 0.0071	 51.83	 62.2	 93.29	 0.0	 0.0	 1	 -30.0	 30.0;
	94	 127	 0.05017	 0.08774	 0.00837	 39.0	 46.8	 70.2	 0.0	 0.0	 1	 -30.0	 30.0;
	95	 104	 0.06926	 0.12157	 0.01174	 78.0	 93.6	 140.4	 0.0	 0.0	 1	 -30.0	 30.0;
	95	 138	 0.01818	 0.05884	 0.00612	 120.0	 144.0	 216.0	 0.0	 0.0	 1	 -30.0	 30.0;
	96	 97	 8e-05	 0.00083	 0.0	 438.0	 525.6	 788.4	 0.0	 0.0	 1	 -30.0	 30.0;
	96	 118	 0.0078	 0.02641	 0.00262	 50.0	 60.0	 90.0	 0.0	 0.0	 1	 -30.0	 30.0;
	96	 124	 0.0256	 0.0784	 0.00806	 50.0	 60.0	 90.0	 0.0	 0.0	 1	 -30.0	 30.0;
	96	 129	 0.00628	 0.01058	 0.00108	 50.0	 60.0	 90.0	 0.0	 0.0	 1	 -30.0	 30.0;
	96	 137	 0.0096	 0.02474	 0.00251	 50.0	 60.0	 90.0	 0.0	 0.0	 1	 -30.0	 30.0;
	97	 108	 0.00389	 0.01319	 0.00131	 50.0	 60.0	 90.0	 0.0	 0.0	 1	 -30.0	 30.0;
	97	 148	 0.01777	 0.03157	 0.00301	 78.0	 93.6	 140.4	 0.0	 0.0	 1	 -30.0	 30.0;
	98	 103	 0.0014	 0.00463	 0.00046	 119.73	 143.68	 215.51	 0.0	 0.0	 1	 -30.0	 30.0;
	98	 2179	 0.0001	 0.01	 0.0	 247.0	 271.7	 296.4	 0.0	 0.0	 1	 -30.0	 30.0;
	99	 2172	 0.0001	 0.01	 0.0	 250.0	 275.0	 300.0	 0.0	 0.0	 1	 -30.0	 30.0;
	100	 111	 0.06537	 0.11488	 0.01096	 78.0	 93.6	 140.4	 0.0	 0.0	 1	 -30.0	 30.0;
	100	 146	 0.03983	 0.06967	 0.00666	 78.0	 93.6	 140.4	 0.0	 0.0	 1	 -30.0	 30.0;
	102	 122	 0.01289	 0.03372	 0.00333	 102.0	 122.4	 183.6	 0.0	 0.0	 1	 -30.0	 30.0;
	102	 125	 0.00661	 0.01826	 0.00194	 102.0	 122.4	 183.6	 0.0	 0.0	 1	 -30.0	 30.0;
	103	 143	 0.05945	 0.10398	 0.00992	 129.86	 155.83	 233.75	 0.0	 0.0	 1	 -30.0	 30.0;
	104	 128	 0.03397	 0.0581	 0.00559	 72.0	 86.4	 129.6	 0.0	 0.0	 1	 -30.0	 30.0;
	106	 126	 0.04961	 0.1096	 0.01071	 100.61	 120.73	 181.1	 0.0	 0.0	 1	 -30.0	 30.0;
	106	 145	 0.00574	 0.01944	 0.00192	 86.38	 103.66	 155.48	 0.0	 0.0	 1	 -30.0	 30.0;
	109	 112	 0.02264	 0.07355	 0.00762	 50.0	 60.0	 90.0	 0.0	 0.0	 1	 -30.0	 30.0;
	110	 113	 0.02706	 0.09164	 0.00907	 59.6	 71.52	 107.28	 0.0	 0.0	 1	 -30.0	 30.0;
	110	 119	 0.02078	 0.03802	 0.00364	 67.66	 81.19	 121.79	 0.0	 0.0	 1	 -30.0	 30.0;
	111	 127	 0.03769	 0.06554	 0.00624	 78.0	 93.6	 140.4	 0.0	 0.0	 1	 -30.0	 30.0;
	112	 128	 0.0343	 0.24545	 0.02408	 120.0	 144.0	 216.0	 0.0	 0.0	 1	 -30.0	 30.0;
	112	 131	 0.00813	 0.02214	 0.00223	 50.0	 60.0	 90.0	 0.0	 0.0	 1	 -30.0	 30.0;
	112	 145	 0.00697	 0.0236	 0.00234	 87.59	 105.11	 157.66	 0.0	 0.0	 1	 -30.0	 30.0;
	113	 130	 0.00813	 0.02214	 0.00223	 50.0	 60.0	 90.0	 0.0	 0.0	 1	 -30.0	 30.0;
	113	 135	 0.0286	 0.05322	 0.00515	 277.0	 304.7	 332.4	 0.0	 0.0	 1	 -30.0	 30.0;
	113	 149	 0.04023	 0.10277	 0.01021	 78.0	 93.6	 140.4	 0.0	 0.0	 1	 -30.0	 30.0;
	114	 126	 0.04802	 0.10264	 0.01344	 84.09	 100.91	 151.36	 0.0	 0.0	 1	 -30.0	 30.0;
	115	 143	 0.02111	 0.0715	 0.00708	 50.0	 60.0	 90.0	 0.0	 0.0	 1	 -30.0	 30.0;
	116	 128	 0.02306	 0.05736	 0.00587	 76.0	 91.2	 136.8	 0.0	 0.0	 1	 -30.0	 30.0;
	116	 134	 0.01107	 0.02744	 0.00281	 50.0	 60.0	 90.0	 0.0	 0.0	 1	 -30.0	 30.0;
	117	 138	 0.01947	 0.06595	 0.00653	 34.0	 40.8	 61.2	 0.0	 0.0	 1	 -30.0	 30.0;
	118	 139	 0.00317	 0.01073	 0.00106	 50.0	 60.0	 90.0	 0.0	 0.0	 1	 -30.0	 30.0;
	120	 121	 8e-05	 0.00083	 0.0	 438.0	 525.6	 788.4	 0.0	 0.0	 1	 -30.0	 30.0;
	122	 148	 0.00818	 0.02149	 0.00212	 50.0	 60.0	 90.0	 0.0	 0.0	 1	 -30.0	 30.0;
	123	 146	 0.01314	 0.02554	 0.00246	 78.0	 93.6	 140.4	 0.0	 0.0	 1	 -30.0	 30.0;
	124	 125	 8e-05	 0.00083	 0.0	 438.0	 525.6	 788.4	 0.0	 0.0	 1	 -30.0	 30.0;
	124	 136	 0.00595	 0.02016	 0.002	 76.0	 91.2	 136.8	 0.0	 0.0	 1	 -30.0	 30.0;
	125	 139	 0.00486	 0.01645	 0.00163	 120.0	 144.0	 216.0	 0.0	 0.0	 1	 -30.0	 30.0;
	125	 149	 0.01173	 0.03052	 0.00303	 79.0	 86.9	 94.8	 0.0	 0.0	 1	 -30.0	 30.0;
	127	 128	 8e-05	 0.00083	 0.0	 438.0	 525.6	 788.4	 0.0	 0.0	 1	 -30.0	 30.0;
	127	 142	 0.02479	 0.08041	 0.00832	 76.0	 91.2	 136.8	 0.0	 0.0	 1	 -30.0	 30.0;
	132	 142	 0.00752	 0.01835	 0.00196	 50.0	 60.0	 90.0	 0.0	 0.0	 1	 -30.0	 30.0;
	133	 134	 0.00752	 0.01835	 0.00196	 50.0	 60.0	 90.0	 0.0	 0.0	 1	 -30.0	 30.0;
	136	 144	 0.01093	 0.03048	 0.00307	 102.0	 122.4	 183.6	 0.0	 0.0	 1	 -30.0	 30.0;
	144	 147	 0.00383	 0.00669	 0.00064	 50.0	 60.0	 90.0	 0.0	 0.0	 1	 -30.0	 30.0;
	152	 153	 1e-05	 0.0002	 0.0	 1593.0	 1911.6	 2867.4	 0.0	 0.0	 1	 -30.0	 30.0;
	152	 164	 0.00131	 0.01547	 0.41152	 838.0	 1005.6	 1508.4	 0.0	 0.0	 1	 -30.0	 30.0;
	153	 463	 0.0001	 0.01	 0.0	 195.73	 234.87	 352.31	 0.0	 0.0	 1	 -30.0	 30.0;
	154	 155	 1e-05	 0.0002	 0.0	 1593.0	 1911.6	 2867.4	 0.0	 0.0	 1	 -30.0	 30.0;
	154	 158	 0.00224	 0.02606	 0.70304	 831.0	 997.2	 1495.8	 0.0	 0.0	 1	 -30.0	 30.0;
	154	 216	 0.00033	 0.00388	 0.10475	 831.0	 997.2	 1495.8	 0.0	 0.0	 1	 -30.0	 30.0;
	155	 160	 0.0024	 0.02795	 0.75408	 838.0	 1005.6	 1508.4	 0.0	 0.0	 1	 -30.0	 30.0;
	155	 166	 0.00133	 0.01553	 0.41898	 831.0	 997.2	 1495.8	 0.0	 0.0	 1	 -30.0	 30.0;
	156	 470	 0.0001	 0.01	 0.0	 185.05	 222.06	 333.1	 0.0	 0.0	 1	 -30.0	 30.0;
	157	 1529	 0.0001	 0.01	 0.0	 107.0	 117.7	 128.4	 0.0	 0.0	 1	 -30.0	 30.0;
	158	 159	 1e-05	 0.0002	 0.0	 50.0	 60.0	 90.0	 0.0	 0.0	 1	 -30.0	 30.0;
	158	 474	 0.0001	 0.01	 0.0	 435.0	 478.5	 522.0	 0.0	 0.0	 1	 -30.0	 30.0;
	160	 161	 1e-05	 0.0002	 0.0	 1593.0	 1911.6	 2867.4	 0.0	 0.0	 1	 -30.0	 30.0;
	161	 700	 0.0001	 0.01	 0.0	 124.91	 149.89	 224.83	 0.0	 0.0	 1	 -30.0	 30.0;
	162	 698	 0.0001	 0.01	 0.0	 141.05	 169.27	 253.9	 0.0	 0.0	 1	 -30.0	 30.0;
	163	 164	 1e-05	 0.0002	 0.0	 1593.0	 1911.6	 2867.4	 0.0	 0.0	 1	 -30.0	 30.0;
	163	 165	 0.0015	 0.01768	 0.46944	 831.0	 997.2	 1495.8	 0.0	 0.0	 1	 -30.0	 30.0;
	165	 166	 1e-05	 0.0002	 0.0	 1593.0	 1911.6	 2867.4	 0.0	 0.0	 1	 -30.0	 30.0;
	165	 216	 0.001	 0.01165	 0.31426	 831.0	 997.2	 1495.8	 0.0	 0.0	 1	 -30.0	 30.0;
...